44
Coordinates from ORCA-job BAPKIM_1_5_tpss_d4_lanl2dz_631gpol_Co3.opt
  Co  -2.44697827184460      2.86116795029751      1.26041879808035
  O   -3.41236039767384      5.15890103380636     -0.55454537016316
  O   -3.72228755223981      2.42288406800240      4.01488982803073
  O   -3.03400870630102      0.09861565366814      2.53611999831579
  O   -1.86427603898722      3.08773328412608     -1.72659371199538
  N   -3.41035084012140      4.55895521967716      0.70330831271512
  N   -3.53742671931699      3.31780873392888      2.89214143001198
  N   -2.58198757136297      0.83348517089185      1.44212897222908
  N   -1.95552480107831      2.21299293105572     -0.57521870184476
  N   -0.57820904509446      3.35896773570216      2.01330667531692
  C   -5.39278185705219      6.00499174314244      1.05008667254477
  C   -4.41923416960137      4.95058739996383      1.48767641914178
  C   -4.50672970505294      4.22859877342806      2.74068491233978
  C   -5.60488523524918      4.46170593204410      3.73799717946135
  C   -2.93115661400520     -1.31272897792331      0.25207746416863
  C   -2.56847225930265      0.14241124316627      0.29831784001163
  C   -2.23133116229866      0.93505759627041     -0.86644940743907
  C   -2.23411191088745      0.37158619820596     -2.25851375995834
  C   0.45435589038878      2.49017547610082      1.91916528167426
  C   1.72052736504400      2.78702278938727      2.42453201738335
  C   1.92558099098421      4.02881050437040      3.04068940530639
  C   0.85680453191810      4.93045248220952      3.13287820748468
  C   -0.38169590515604      4.55724661640024      2.61012638395918
  H   -4.87900506321572      6.96431181179350      0.89657317381196
  H   -6.19303275557350      6.14554497083990      1.78144471187819
  H   -5.83272159223789      5.72407056942087      0.08375027214385
  H   -5.41386413505090      3.88992505030520      4.64903534628900
  H   -6.57554586559286      4.14577616947865      3.32935055961281
  H   -5.68252400538639      5.52825913505954      3.98603378839835
  H   -2.22964040734188     -1.90432368157546      0.85679917241725
  H   -2.92861112177935     -1.69736042415840     -0.77114391639758
  H   -3.92725158062617     -1.46120276379160      0.69059882029602
  H   -1.90113868557873      1.12840985189042     -2.97241328086862
  H   -3.24349599048967      0.04415769698111     -2.54522956264057
  H   -1.57384496761974     -0.50379964201401     -2.32270731782389
  H   0.22946334726367      1.54556472018586      1.42873867221348
  H   2.52457828924802      2.06082705722294      2.33611685903189
  H   2.90250023466067      4.28971561649467      3.44229874998542
  H   0.97776716013154      5.90419903935210      3.60071192221984
  H   -1.25203114458008      5.20872338647064      2.65189442255400
  H   -2.83569745836444      4.54490898247338     -1.08846030848042
  H   -3.28085619790192      0.81199058047543      3.18775524564071
  H   -2.90139590902095      2.56023484811724      4.53870150533982
  H   -0.94941216665211      3.44213746705534     -1.66027368239680
