50
Coordinates from ORCA-job BAPKIM-CH3OH_1_1_tpss_d4_lanl2dz_631gpol_Co3.opt
  Co  -2.73519015189970      2.77491449801259      1.20500123900190
  O   -3.18498860167306      5.26730176281252     -0.25220299507583
  O   -3.81733456552948      2.14704764974898      3.86187021416760
  O   -2.72744216701953      0.13333982173319      2.48153562998367
  O   -2.03594648293422      3.28535260569084     -1.61796348620829
  N   -3.47073840441276      4.45513071757403      0.83529630477059
  N   -3.73534823596722      3.05677756522920      2.75239257963543
  N   -2.61489331574408      0.90139046365543      1.33398784441607
  N   -2.21987049880179      2.34142041335200     -0.54603410891403
  N   -0.94116491527492      3.30633164623005      1.93712584180107
  C   -4.67496600621047      6.47994366033294      1.62413833397219
  C   -4.16445158971644      5.08000416305567      1.79414264041103
  C   -4.33315131449020      4.23907624553578      2.94013089701140
  C   -5.07273573938557      4.60170680918211      4.19411558976154
  C   -2.10795955669531     -1.28380966330250      0.26930234539812
  C   -2.24837695222711      0.20765730910077      0.26089305172417
  C   -2.04338726689191      1.06705843221004     -0.87546867165345
  C   -1.72128314228899      0.56671474121156     -2.24996052701885
  O   -5.10217383139237      1.26000909781116     -0.53051326494082
  C   -0.23165454063378      2.45564081797036      2.71763294383839
  C   1.01311501593414      2.79432168722726      3.25038126081182
  C   1.55290220761017      4.05578545266298      2.97073955410231
  C   0.82025181399343      4.93521904831935      2.16411039287717
  C   -0.41909297406485      4.52762662906303      1.66809544723927
  H   -5.21687090619915      6.57084467101294      0.67447811660009
  H   -3.84233250428593      7.19665435990874      1.59158152272820
  H   -5.34138102143971      6.76205333665599      2.44406091461912
  H   -5.53163250610536      3.70966626507859      4.63322156423256
  H   -5.85634512948436      5.33592918093532      3.98240390782005
  H   -4.39862403951079      5.04560732146193      4.94322341471868
  H   -3.03655810202070     -1.74193346798765      0.63353625793444
  H   -1.30075691223940     -1.59842342737155      0.94485140701960
  H   -1.89446625105023     -1.66224580273637     -0.73436970947762
  H   -1.64872196037498      1.39547577859804     -2.95758366644341
  H   -2.52338597950952     -0.10613779279846     -2.58297601462446
  H   -0.78122254248828     -0.00123985772566     -2.25652427112261
  H   -0.68907724330123      1.48611497255837      2.90480378125356
  H   1.54481670488781      2.07614817387502      3.86997331460663
  H   2.52165374937210      4.34625110860868      3.37122991757454
  H   1.19726629593923      5.92533624832542      1.91931417962437
  H   -1.02353544326010      5.17759538794690      1.03833151081540
  H   -2.83770478442643      4.61396385381929     -0.92898284909293
  H   -3.20670264264049      0.74687348908362      3.11297202171398
  H   -3.16372781235319      2.47840176830657      4.52090365453623
  H   -1.07866919076975      3.51639530185360     -1.58153357392879
  C   -5.71032554662926      2.31763924713708     -1.27842550197854
  H   -5.00751251189819      3.14555945801566     -1.47149333312103
  H   -6.60353425289694      2.72201097543096     -0.77485545301671
  H   -6.01654513544250      1.88575241609718     -2.23636254195065
  H   -4.75638311615621      1.65995545949002      0.29774237184663
