46
Coordinates from ORCA-job BAPKIM-OH_1_2_tpss_d4_lanl2dz_631gpol_Co3.opt
  Co  -2.93375123365463      2.72223608304238      1.09740058330450
  O   -3.15110019125913      5.29922512058857     -0.24597822155564
  O   -4.07498523722629      2.09699643641070      3.85188102796615
  O   -2.76122481802801      0.12979272137384      2.42223610597582
  O   -2.26178086673847      3.22460629690048     -1.81002398472638
  N   -3.48107041689182      4.52705015373915      0.84628427363663
  N   -3.69189026468285      3.13595247165515      2.90554613934194
  N   -2.68031287088164      0.85375331421146      1.24171002039477
  N   -2.10927323131128      2.32788208817913     -0.67333834382849
  N   -1.08883632045902      3.20508861966317      1.79794379543021
  C   -4.82639111303771      6.45314233757963      1.65940696553219
  C   -4.24536223899273      5.07460541199223      1.76160595039590
  C   -4.51916780644727      4.16228846140186      2.87674238476779
  C   -5.65012795285475      4.40168235374980      3.82894778652890
  C   -1.99931886663053     -1.28814638679597      0.18766764079136
  C   -2.27517655683963      0.18574283073592      0.17448340784397
  C   -2.15972619154577      1.04177831800749     -0.99841057235512
  C   -2.12253977817550      0.49354365340266     -2.39429338374395
  O   -4.65229952186528      2.39406353811468      0.44266056673453
  C   -0.46796482115165      2.42930158534926      2.71556404231130
  C   0.80382979634698      2.72408058678657      3.20893966445044
  C   1.46346306026146      3.86854495122448      2.74554550722242
  C   0.82028950516374      4.67449094532561      1.79876074561298
  C   -0.44921557193159      4.30924802202361      1.34888069224478
  H   -4.70454253138926      6.83450131322313      0.64240949109070
  H   -4.32708780396678      7.14212986535285      2.35595786927385
  H   -5.89360195282635      6.43616677422496      1.91277141742748
  H   -5.63187609525089      3.67320885308047      4.64207577128346
  H   -6.60678219304134      4.30525471531081      3.29497471144024
  H   -5.60030397941078      5.41825026241271      4.24044235921608
  H   -2.67803420819622     -1.79140265526547      0.88487510986985
  H   -0.97069674240551     -1.48579828087259      0.52364996949947
  H   -2.11837014350690     -1.71736317527660     -0.81218627429483
  H   -2.10122182709848      1.30780867718381     -3.12158762076738
  H   -3.00958649123559     -0.12569648341500     -2.58554157470392
  H   -1.23714298420392     -0.14231211698267     -2.53503713614050
  H   -1.01366345098060      1.54591651801444      3.03784129177419
  H   1.26303615896297      2.06389696527443      3.94074036487822
  H   2.45446611935027      4.12576091017500      3.11306020326966
  H   1.28894880708846      5.57584627286082      1.41124090931031
  H   -0.98903799923354      4.90881642741546      0.62013233847438
  H   -2.96743670246723      4.60051584533413     -0.94677889186092
  H   -3.36479267581194      0.70640136042190      2.98143123211808
  H   -3.36955060560642      2.16139104377582      4.53592231349859
  H   -1.35904010662520      3.60730195768865     -1.90069110772812
  H   -4.78411908331109      1.42480503540077      0.49154445879399
