50
Coordinates from ORCA-job BAPKIM-CH3OH_1_5_tpss_d4_lanl2dz_631gpol_Co3.opt
  Co  -2.74432055025170      2.74533399164238      1.04582048420962
  O   -3.42679427755005      5.25565328477617     -0.54916473034932
  O   -3.82067301347548      2.30563700980359      3.85902238620579
  O   -2.63992228057210      0.05536197714026      2.50644647933861
  O   -2.01382695044673      2.98150353064483     -1.88417618038170
  N   -3.40282470765151      4.60740225782798      0.69700884192199
  N   -3.78106797930350      3.15543313414529      2.69292142816444
  N   -2.50322550709750      0.75570386375600      1.32214313312042
  N   -1.94118921742018      2.14185885819119     -0.70293108084632
  N   -0.86568890160613      3.29669584766095      1.95828429882659
  C   -4.90034656113251      6.47683469515675      1.34918672139656
  C   -4.21064318912941      5.16865232854061      1.61871868304725
  C   -4.35668357851822      4.37765736701289      2.80773559876043
  C   -5.05996545521528      4.82060971989845      4.06021845718858
  C   -2.04926202443502     -1.46181854335742      0.31428633207667
  C   -2.18576862587262      0.03191268650118      0.25906589341924
  C   -2.01478783061140      0.83229305426921     -0.94598138344788
  C   -1.93939478055238      0.21621490220715     -2.31313619843186
  O   -4.75846423361743      2.04234130917302      0.15284489418383
  C   0.19416688833759      2.46018745679233      1.92968088711065
  C   1.40711367853008      2.76589002525352      2.54983268935536
  C   1.52975829222622      3.98769650685543      3.22332040864965
  C   0.43403694092997      4.86015091430303      3.24844753270238
  C   -0.74371810612213      4.47752752126763      2.60440391518586
  H   -5.61344527715829      6.37347712077164      0.51896587890427
  H   -4.16889115596764      7.23709739074044      1.04460631568524
  H   -5.43911771318486      6.84121880982532      2.22782468098336
  H   -5.50369171989526      3.95440406536033      4.56412479938087
  H   -5.84991756189297      5.54592131168667      3.84157218459518
  H   -4.36329194934760      5.30034378281966      4.76639038662765
  H   -2.89344594870899     -1.88914676621460      0.86992620425461
  H   -1.13354888253540     -1.74829736630401      0.85170845145107
  H   -2.01428281165785     -1.90198744977492     -0.68631701045187
  H   -1.84663946936392      0.99553831667997     -3.07299181525555
  H   -2.83904785796878     -0.37931494503905     -2.52078463935347
  H   -1.07540956963973     -0.45930446854541     -2.38523353877519
  H   0.04326844857513      1.52725437154646      1.39199792906836
  H   2.23322894554288      2.06048778640289      2.50442318447698
  H   2.46163008948189      4.25580327254519      3.71685055818807
  H   0.48919431543619      5.82146628449256      3.75355858054185
  H   -1.62392622667956      5.11622494380889      2.58383762356987
  H   -2.95227654272087      4.60222186837565     -1.12639228790777
  H   -3.04674603554217      0.74019391326310      3.10962914561106
  H   -3.19910347928175      2.71111242527563      4.50733713197010
  H   -1.14157010646610      3.43592559871223     -1.87547678049353
  C   -5.35789059214143      2.62592142484299     -1.03270134526990
  H   -5.38153201069936      3.72043253084549     -0.97227948323655
  H   -6.36860505377824      2.22472199428937     -1.17383765265335
  H   -4.72524044457916      2.32068421837540     -1.86917808994840
  H   -5.31436941926830      2.27107586575532      0.92671009662998
