34
Coordinates from ORCA-job CUPJOO-OH_0_1_tpss_d4_lanl2dz_631gpol_Co2.opt
  Co  6.61336472913122      2.24328837569498      3.89884000036166
  O   4.82568207133045      2.33337529152881      4.60051986161741
  O   6.45156758457723      3.58003676471186      5.27002450812661
  O   4.44086345044586      3.82151182505518      6.22464489289289
  N   6.40409498025656      0.86585457665831      2.58853262517634
  N   5.17707549987947      3.28489683783330      5.43039096664366
  N   5.56660629657702     -0.17334894519814      0.80353637402241
  N   3.76078846081048      0.57628526916067     -0.45033096357203
  N   4.91512308993479     -1.46247718257945     -1.03888881331136
  C   5.47573154745584      0.90647059279719      1.65329413346361
  H   4.72753130360663      1.67453210212350      1.52835994016174
  C   6.65329553551449     -0.96054860813806      1.24119079129292
  C   7.16916996299674     -0.28874139389901      2.37425538607364
  C   4.70084805081679     -0.37078803503528     -0.29227098052050
  C   4.07132560770145     -1.61287120224459     -2.07690405488469
  H   4.23347289872843     -2.49655906766236     -2.69370029746636
  C   3.04921499513513     -0.70264477321257     -2.35791913795423
  H   2.37724253461413     -0.83854171556114     -3.20059516722079
  C   2.93811857571112      0.39436802204882     -1.49448364667830
  H   2.17146291934701      1.15609621253698     -1.63435352546828
  C   7.21676729440818     -2.15122875336114      0.76848534490177
  H   6.81259901916338     -2.65742534701430     -0.09979505958018
  C   8.31954344789710     -2.63766365843380      1.47734959484463
  H   8.78951015771251     -3.56149129214841      1.14471539232847
  C   8.83631478428688     -1.97003597397743      2.60928308798716
  H   9.69290338505049     -2.39423301388906      3.12971204316385
  C   8.27127899863610     -0.78383800990307      3.08019076180187
  H   8.61339659421780     -0.25957385165781      3.96645368350079
  O   8.33302888648721      2.70014547893632      3.16985851933691
  O   6.51035880523716      3.61136424613289      2.43372748358709
  O   8.46133184668629      4.19392990085009      1.51593592963656
  O   7.12719880545962      1.00680955039840      5.14485255060772
  N   7.80966462768987      3.55377021686165      2.31230644409986
  H   7.54457325249620      1.55492556058664      5.84548133102705
