33
Coordinates from ORCA-job CUPJOO-oxo_0_2_tpss_d4_lanl2dz_631gpol_Co2.opt
  Co  6.54354456893983      2.22440848507194      3.91885853489618
  O   4.75020820562159      2.33063052836517      4.58108940213821
  O   6.32169663801946      3.66013620800519      5.23079499992214
  O   4.28433975757117      3.88843788607534      6.11249044256609
  N   6.35450462264796      0.83908566776922      2.61575611760149
  N   5.06635718891365      3.34038341796645      5.37263886323098
  N   5.54840559634713     -0.20737586534460      0.82398439890641
  N   3.73196322423336      0.50768953431760     -0.43513317849420
  N   4.93404614569883     -1.50181132778698     -1.02766063871966
  C   5.42855591275979      0.86584791920737      1.67588171059222
  H   4.66641930079682      1.62005324786191      1.55055224212123
  C   6.64867008003232     -0.97415544174285      1.26368063623015
  C   7.14552160353966     -0.29714387453648      2.40212986729373
  C   4.69124398426204     -0.41893848471138     -0.27830101564699
  C   4.09851318177542     -1.66638529434618     -2.07056205074121
  H   4.28299382159682     -2.54334119972224     -2.69076738049485
  C   3.05790767995551     -0.77747075589862     -2.35184901269347
  H   2.39279652611998     -0.92430285301850     -3.19819938307238
  C   2.91802180248939      0.31283327825908     -1.48407030738407
  H   2.13518145647885      1.05796414042603     -1.62414934575882
  C   7.23723720998519     -2.15321564732827      0.79227396123968
  H   6.84752785021495     -2.66489247033563     -0.07941163847716
  C   8.34386835980105     -2.62085853829935      1.50761072059782
  H   8.83322711447585     -3.53480817217801      1.17561634324980
  C   8.84140457845657     -1.94716154429010      2.64455213935962
  H   9.70342279550404     -2.35553970469061      3.16850693689022
  C   8.25145408914266     -0.77298564739116      3.11515256886439
  H   8.58923952389194     -0.24301673358469      3.99973417843038
  O   8.26442677409162      2.71253267979321      3.15577777177428
  O   6.42487112594524      3.59488341732551      2.41657089094147
  O   8.36139083415620      4.16247923575545      1.46757800610591
  O   7.07799703775727      1.14120029225656      5.13655175063358
  N   7.71984140877755      3.53923761674960      2.28652146789674
