33
Coordinates from ORCA-job CUPJOO-oxo_0_4_tpss_d4_lanl2dz_631gpol_Co2.opt
  Co  6.46313025962076      2.06655644210415      4.10325962270398
  O   4.48697196954330      2.86683495999688      4.28742787012939
  O   6.27491372076513      3.62509739289242      5.28764416141612
  O   4.33356154677628      4.65536900821208      5.59848259970730
  N   6.28077494741580      0.71930567349482      2.68634283576242
  N   4.97696881459600      3.76345609659633      5.08277246357136
  N   5.49632919361743     -0.28642492665926      0.86285898502665
  N   3.61624267439655      0.37671966115615     -0.32979128051426
  N   4.92717263476946     -1.52263525656834     -1.04206682333469
  C   5.32526962017028      0.72697363101321      1.77864649646201
  H   4.50778510218485      1.43030454097661      1.71668033956748
  C   6.66146271696096     -0.99383971982627      1.22882987074202
  C   7.14246756140040     -0.33873818163703      2.38577165704471
  C   4.63182272452811     -0.49570275828682     -0.23547911204093
  C   4.08707891843137     -1.68345300974927     -2.08213262231263
  H   4.31409885060902     -2.51380785994403     -2.75006334759397
  C   2.99054993594424     -0.84607935100552     -2.30269036793616
  H   2.32306420653807     -0.98857106647362     -3.14779258644155
  C   2.79752412745120      0.18633164200041     -1.37612308417857
  H   1.96807675662269      0.88708397660695     -1.46546917363080
  C   7.32398361813384     -2.09818313347424      0.68085983131881
  H   6.94932979474451     -2.59412791608388     -0.20635011502990
  C   8.48381339956987     -2.51442572997017      1.34235811435640
  H   9.03097371329796     -3.36958063961207      0.95034169799352
  C   8.96664521792231     -1.86124998859817      2.49776568659125
  H   9.87528278278226     -2.22477024245542      2.97299226445748
  C   8.30410534310882     -0.75974922613607      3.04141842972146
  H   8.66074336397543     -0.23857873937969      3.92452623158930
  O   8.46421258970076      2.52641212286528      3.43227928589402
  O   6.64595299912042      3.39907929667037      2.61895452213460
  O   8.61002441091905      3.99757621896360      1.77623134225275
  O   6.61453137659559      0.95513676277566      5.28634341238911
  N   7.96193510778688      3.34208031953493      2.56937079218121
