38
Coordinates from ORCA-job CUPJOO-CH3OH_0_4_tpss_d4_lanl2dz_631gpol_Co2.opt
  Co  6.10930448818697      2.19384536946391      4.13042527463768
  O   4.47699051052665      1.77943286093992      5.29164557150123
  O   5.93168868143926      3.18254712834388      6.12536795712457
  O   4.13339662884605      2.63260804227030      7.31159008386237
  N   6.10776375785187      0.79197978172569      2.60282100078002
  N   4.81333925368466      2.53775978671801      6.30322294104325
  N   5.62197322742716     -0.11086064071572      0.61006883378680
  N   4.35009148694097      0.91059210043856     -1.04498665955177
  N   5.25907187149162     -1.30312430313017     -1.37169558770868
  C   5.49300276981146      0.97622491667578      1.44917774473593
  H   4.94085003708142      1.86215021429945      1.16927632217303
  C   6.38632113874879     -1.07807265231077      1.29378285715053
  C   6.67578096934620     -0.49007131211711      2.54776878615652
  C   5.04676825783867     -0.17688499361281     -0.67735833697900
  C   4.68846283966546     -1.33252984608514     -2.59094580180241
  H   4.85107324165027     -2.24288456937460     -3.16756630706616
  C   3.93362650691292     -0.27149828276371     -3.09691416822449
  H   3.47828100133774     -0.31116404890488     -4.08246210910702
  C   3.79628429193305      0.84734304051573     -2.26521490040485
  H   3.22770355875477      1.72387656406612     -2.57485108689073
  C   6.83084224723140     -2.36096783195293      0.95489647425620
  H   6.60086388382494     -2.79675101970055     -0.00998048774418
  C   7.57532473364455     -3.03737165182646      1.92725852417608
  H   7.94060952845381     -4.03844011248491      1.70558109880055
  C   7.85831071464141     -2.46322110870008      3.18490505682979
  H   8.43255023667040     -3.03382171121786      3.91244191680532
  C   7.41197778442378     -1.18203006019375      3.51770335402690
  H   7.60935734052100     -0.73113358597890      4.48675626129920
  O   7.02249553544106      3.85782931948260      3.37024694095443
  O   4.95446894091899      3.49723623343437      2.77569680390183
  O   6.03765977294050      5.25329319527208      1.95032154798873
  O   7.76385511019018      1.44726220314674      5.29873188677247
  N   5.99467159216085      4.25651295062800      2.65618135551752
  C   9.07950454004649      1.86677083810456      4.83766265944379
  H   9.29103941535058      1.26393831680398      3.95085272606297
  H   9.07903727770695      2.93113908032951      4.57600614856870
  H   9.82164290707670      1.65587754541904      5.61671070642049
  H   7.50568391927969      2.00416824299202      6.07395461070215
