33
Coordinates from ORCA-job CUPJOO-oxo_0_6_tpss_d4_lanl2dz_631gpol_Co2.opt
  Co  7.01485368127544      2.26609996286962      3.90824569890237
  O   5.06046312889199      1.84343561673339      4.60247054960603
  O   6.15110325230601      3.56362790176842      5.34807346137556
  O   4.08302804926239      3.20243746873323      6.05767279221831
  N   6.70054994611620      0.83438586364210      2.47500903955174
  N   5.04228989228814      2.89025946950871      5.37760074775450
  N   5.71025289598323     -0.19879018754823      0.76040419696896
  N   4.03611651596924      0.71221798027883     -0.57056110932030
  N   4.86734372063830     -1.51735374516408     -0.98149078074577
  C   5.78241273066570      0.93760619094252      1.52745291943256
  H   5.15423789610144      1.79731254728741      1.34652860800969
  C   6.66107161239985     -1.11281274431054      1.26774501409677
  C   7.27051486541365     -0.44048331753667      2.35191475456978
  C   4.82068922442529     -0.34930335285298     -0.32926752343510
  C   4.00612832235908     -1.62428353390735     -2.01142246842794
  H   4.03124005579749     -2.56929320339886     -2.55304229150342
  C   3.13166516827387     -0.59649201498751     -2.37249683127871
  H   2.44285149141540     -0.69801035032600     -3.20634016589688
  C   3.19000969435648      0.57228387969056     -1.60286869476936
  H   2.54673952858957      1.42688432875411     -1.80978236232213
  C   7.03138644769165     -2.41000556380985      0.89914950583903
  H   6.55930358005891     -2.91432561856228      0.06462783000683
  C   8.03759163800975     -3.00821904758195      1.66695912301840
  H   8.35644682889221     -4.01802434779155      1.41589247308948
  C   8.64638890378175     -2.34412551425281      2.75281631382220
  H   9.42164070445080     -2.85363040084029      3.32124151653215
  C   8.27397531295202     -1.04700224526033      3.11452121462495
  H   8.72191848546488     -0.51699180461064      3.95215560347161
  O   8.09193194038222      3.71548392023182      3.08277635892264
  O   5.99947300308625      3.71246043364533      2.43155985105302
  O   7.39798357454342      5.22537219933198      1.61276942209937
  O   8.11425550608915      1.44123021759611      4.94848892767024
  N   7.14094240206791      4.27244901172777      2.32539630506332
