32
Coordinates from ORCA-job CUPJOO_0_4_tpss_d4_lanl2dz_631gpol_Co2.opt
  Co  6.62677813847417      2.77543736273790      3.43113483614679
  O   4.76830120707372      3.56450794025221      2.97145530670611
  O   5.29142078443602      2.93431288967639      5.00807278751513
  O   3.26305774776021      3.74548333130886      4.59856965173490
  N   6.49828265466275      1.13043901268662      2.22887299991612
  N   4.37575882412936      3.43413672042254      4.22182770142687
  N   5.49586844090142     -0.13027115584810      0.67188500333108
  N   3.46333117753789      0.36879281668226     -0.33665246671853
  N   4.66228275495643     -1.64942224583155     -0.90428079057213
  C   5.44968212799838      1.01630358759225      1.42998512191542
  H   4.62852401789154      1.71668255911096      1.36380629601247
  C   6.68261657784555     -0.81131773411893      1.01702791639431
  C   7.29774772941539     -0.00250309489460      2.00207991705588
  C   4.48573588262552     -0.49693615239020     -0.24558421191197
  C   3.67446000045534     -1.96710951008196     -1.76262669838055
  H   3.80284126377239     -2.90273108418872     -2.30623220004959
  C   2.55129160194538     -1.15847719099966     -1.95357907470536
  H   1.76219830115432     -1.42990836339072     -2.64915876562630
  C   2.49718441594823      0.02126269150686     -1.20066015892464
  H   1.66108290340525      0.71507159444002     -1.28351158745741
  C   7.25204323655511     -2.01126377162703      0.57755761091219
  H   6.76801192507595     -2.61871318371774     -0.17771909975913
  C   8.46727852275233     -2.37203069577268      1.16850440483735
  H   8.94713737277692     -3.29804503220203      0.85726319463326
  C   9.08414477239487     -1.57428474390355      2.15581889030777
  H   10.02667498906978     -1.90076097529012      2.59066989347286
  C   8.51164174508640     -0.37691434050345      2.59069201683383
  H   8.96442400518348      0.23933859770261      3.36207238155469
  O   8.33787942255745      2.03332023984838      4.56327554655758
  O   8.28904192931285      3.84355416661981      3.35343389253126
  O   10.17616922778081      3.27451564255314      4.39208031606295
  N   9.00840629906425      3.04853012162021      4.13311936824663
