119
Coordinates from ORCA-job DADHIB-oxo_1_5_tpss_d4_lanl2dz_631gpol_Fe2.opt
  Fe  10.35542484970748      6.61541512632565     13.15794019684886
  Se  7.49761758547174     10.50946420919110     12.61896130370157
  N   8.95261925195114      7.91057193325507     12.80767900708078
  C   8.39196220651158      8.96561241284706     12.73734738339694
  N   10.34499067426013      1.44486155018301     14.90000230825988
  N   11.81149399278638      5.12600065714557     13.63596158872964
  N   9.63862574219727      6.09214396773800     15.10467295464667
  N   10.23841213928033      3.80603273925485     14.77889621520302
  C   8.72000427028013      6.88300886183736     17.18107501350952
  H   8.35695091958783      7.71630234497316     17.77643955985630
  N   8.25546638274747      2.62228213341348     14.90317951451984
  C   11.57258317039913      3.97914930254580     14.31093019199768
  C   9.67272204636503      4.83881283568010     15.58748070696231
  C   9.58884065295016      2.53871989118305     14.85332930650126
  C   13.08279785533373      5.43380822565035     13.28911039172465
  H   13.20591789049818      6.40111239739390     12.81222936833821
  C   9.19340143191654      7.10103029323099     15.89313575248934
  H   9.22792923653021      8.08828717892886     15.44139675356873
  C   12.60539799251490      3.06686705341721     14.58996162700131
  H   12.37181068483684      2.16040877185735     15.12929437845176
  N   10.33893633420579     -0.86471575761264     15.10900101409552
  N   8.28521698577204      0.21881678717985     15.16061572145701
  C   9.23437457230079      4.54212738226185     16.89051431216939
  H   9.30154549656044      3.52393096810189     17.26137214469614
  N   6.29134480782699      1.40251133424919     15.13654599116359
  C   7.64796060077078      1.40872247083747     15.06615410666744
  C   9.62650233297629      0.29138356702566     15.04520355376948
  C   8.74205165981328      5.57274780896339     17.68598762945417
  H   8.40430014703681      5.36332825429496     18.69885653023438
  C   5.54845398360838      2.67308273211526     15.13327767591397
  H   4.52701137226968      2.43953968364582     14.80793483516267
  H   6.01169834404067      3.32054898923731     14.38334180478427
  C   11.81103205551722     -0.81732440065498     15.13914435551009
  H   12.14185266003597     -0.10883883474987     14.37181410899988
  H   12.16348341799817     -1.81515198444584     14.85119876886247
  C   9.64006791430357     -2.13881992674206     15.34845532958658
  C   9.32993426517488     -2.40392278696864     16.82834206476929
  C   12.38452548028700     -0.42507870914129     16.50957175866688
  H   12.00016013934498      0.55493183368363     16.81831127642078
  H   13.48044089025563     -0.36862276488799     16.45457183301696
  H   12.12026908913676     -1.15858692449906     17.28037053544803
  C   5.57673471679663      0.13283102444708     15.35809636553562
  C   5.52907415765676     -0.29234305704209     16.83232794755117
  C   5.53571201330273      3.38742432102201     16.49237111207161
  H   5.06848263479596      2.77052552173709     17.26948069337621
  H   4.96982593592952      4.32606212225332     16.41472631741176
  H   6.56084301194444      3.62821724278387     16.79637649872531
  C   13.90275168562134      3.37165748196628     14.18148659915821
  H   14.71222252511441      2.67961995747454     14.40368302261861
  C   14.15614352349584      4.58721571327296     13.53748089284146
  H   15.15911828472616      4.88078057225476     13.24074432229669
  O   11.41125995565634      7.75457977563749     13.67412748802896
  N   10.59814346931284      2.05289772744493     11.47544552077001
  N   9.00701223506335      5.20492058311066     12.38777930418072
  N   11.15576027834447      6.61510973109416     11.16756345651177
  N   10.70757774075177      4.31585400620389     10.99894613643885
  C   12.42025815217966      7.81531883965072      9.51799935605352
  H   12.81933279431283      8.76137153031657      9.16215469324603
  N   12.69125357077108      3.09097325859835     10.91742062699505
  C   9.33414090690816      4.38598597350244     11.37251848976171
  C   11.35042809069660      5.46925157517043     10.48770991594678
  C   11.37544231784982      3.07965244315456     11.12997740549940
  C   7.70487217064005      5.30277856749530     12.74980390219318
  H   7.49537137382773      5.99761059845662     13.55530286719805
  C   11.66207170798359      7.77377955946912     10.68373185893692
  H   11.45674153839678      8.65456936172294     11.28585409592906
  C   8.37923624551127      3.63655720197772     10.67505245140734
  H   8.70012896887201      3.00643230331181      9.85380906134377
  N   10.53835872501065     -0.23529117196964     11.82307645658159
  N   12.62389527252674      0.74867665758632     11.51439885485822
  C   12.10299318941142      5.42693612184532      9.30426329043744
  H   12.23620515648549      4.48441776281148      8.78586842999871
  N   14.63355993360620      1.83641431875328     11.09659285927366
  C   13.27607658852045      1.88437521664424     11.17877970908466
  C   11.28175512274345      0.88152215905304     11.60329476011225
  C   12.65213968464334      6.61538345318914      8.82633793444557
  H   13.23685439941656      6.61082201667273      7.90872594246005
  C   15.37596599039807      2.99055207757167     10.56284491373363
  H   16.40328390710063      2.91050056655846     10.94023458856955
  H   14.92161929363998      3.89560923371050     10.97704960319346
  C   9.07093321491895     -0.13726047053450     11.86373803194192
  H   8.82176041637789      0.81538844454031     12.33799753612229
  H   8.71232493041754     -0.94689410550799     12.51050883201145
  C   11.18133686490405     -1.55857749236983     11.79959997142437
  C   11.44160275284129     -2.09133996631379     10.38273468240909
  C   8.40473976001587     -0.21081304489459     10.48168596908362
  H   8.82505366854151      0.55460510135588      9.81795381407638
  H   7.32500397519827     -0.03214861200658     10.58082494591214
  H   8.54201360322351     -1.19086036378347     10.00922135321398
  C   15.33704975090332      0.56979705288932     11.36186994069869
  C   15.36758279371997     -0.38912989480940     10.16336184331533
  C   15.36590592369924      3.06880251600348      9.02895275252657
  H   15.85868429378730      2.20168389465300      8.57371534715650
  H   15.89145813113755      3.97470836590137      8.69736793489915
  H   14.33243129784582      3.11415821554609      8.66476445767265
  C   7.04258611727442      3.73280333815621     11.05534860693874
  H   6.27924027728748      3.17050188101559     10.52180427328116
  C   6.69923699411735      4.58239873654827     12.11535267599681
  H   5.66725152737119      4.70435832320028     12.43276686304396
  H   10.27646513773194     -2.93202908640832     14.93587597835783
  H   8.70655746885622     -2.11207083678552     14.77651182591623
  H   8.73112268343866     -1.58226509096808     17.23764993678530
  H   8.75575221237673     -3.33465892927461     16.92813921189877
  H   10.24639700417426     -2.50477579408201     17.42277637910887
  H   6.08280264370717     -0.63614787888132     14.76525511013264
  H   4.56345203265608      0.26573245262159     14.95891944281468
  H   4.98803232355622      0.43914601767366     17.44518085872831
  H   5.01844298896799     -1.26005054034123     16.92556367816383
  H   6.54692963060408     -0.39834767688374     17.22512119550625
  H   10.52617997341652     -2.23781315009356     12.35922271921667
  H   12.13163812872327     -1.47514620044199     12.33552050658408
  H   12.06413749624403     -1.38161799937970      9.82537442813153
  H   11.97512274189856     -3.04981360636849     10.43702039877072
  H   10.50910694877756     -2.25094974577788      9.82854518524160
  H   14.83305572747589      0.08881951658109     12.20693509924215
  H   16.35601232515466      0.83469933924819     11.67224491603281
  H   15.91550916688150      0.03979066569038      9.31559718873931
  H   15.86378339892457     -1.32631125887344     10.44939694277840
  H   14.34552487752017     -0.62182607370553      9.84423254770598
