119
Coordinates from ORCA-job DADHIB-oxo_1_3_tpss_d4_lanl2dz_631gpol_Fe2.opt
  Fe  10.55916258476382      6.24262422866466     13.30170156344838
  Se  7.42197433383257      7.78291527863072     10.37882171934588
  N   9.17995085312461      7.50588927931079     12.77408670699777
  C   8.48721847920193      7.61364746050017     11.79630002246632
  N   9.83508948483391      1.61972313249215     15.07287140103097
  N   11.81930390653333      4.80727331137557     13.87163187530216
  N   9.84464437115246      6.26400923643699     15.13427271104419
  N   10.17077471410633      3.92496456164285     15.31345240990134
  C   9.00348083382005      7.58111869235261     16.95358529663997
  H   8.72950024923182      8.55923148973360     17.33918837609237
  N   8.04096951049933      3.09387267075618     15.68015295749306
  C   11.47278961956512      3.84512385383268     14.75844014407498
  C   9.73924866322669      5.15003770042699     15.88398515315093
  C   9.30491449209906      2.80394405734253     15.36572922003836
  C   13.09016087574838      4.84628614573722     13.40469013289830
  H   13.31582307731012      5.67752324087315     12.74657602878210
  C   9.50476774196811      7.46746026548933     15.66332632847307
  H   9.64195727276671      8.31304577979863     14.99857318876919
  C   12.37705179588370      2.85058729028319     15.15526933425944
  H   12.05689090856952      2.10502958607679     15.87112767942580
  N   9.39347324094195     -0.64588146433153     14.86634181792027
  N   7.58869322620303      0.75783387624510     15.28084182781592
  C   9.25896450253783      5.19508066602250     17.20091218801446
  H   9.19911393892248      4.27622852606653     17.77377283102919
  N   5.88110842172064      2.25986418596988     15.76336664123833
  C   7.20594005964166      2.01986616277757     15.57497040961556
  C   8.91553021411590      0.60911922361561     15.07918720535936
  C   8.87528051504231      6.42195854012112     17.73486808627917
  H   8.50104870676013      6.47873965096796     18.75472158881136
  C   5.43412874187721      3.58794929797860     16.21818064606222
  H   4.38141095194670      3.68598472464241     15.92547707084655
  H   6.01734655349732      4.33903956134639     15.67543603871675
  C   10.84774438036739     -0.87093124684756     14.80452340454060
  H   11.28267710204643     -0.07568861645140     14.19206882724508
  H   10.99780856261672     -1.82389182640918     14.28264469296691
  C   8.47074424030473     -1.79318412010102     14.89211241916754
  C   8.17618845152575     -2.31781807185608     16.30439605158385
  C   11.52384008118973     -0.90496329392272     16.18304084026281
  H   11.33016654013270      0.02929989972519     16.72495180685836
  H   12.61007493800612     -1.01938609227895     16.06283244694594
  H   11.16012447730517     -1.73882428530008     16.79495112203131
  C   4.91641910944255      1.14969074365543     15.67168813372118
  C   4.79905461070958      0.32463209019853     16.96070869718206
  C   5.60087229206200      3.80810743584968     17.72862056255584
  H   4.99532386975161      3.10297401795763     18.31017628858643
  H   5.28930802951820      4.82766335880219     17.99315463537673
  H   6.65306936260826      3.68228185762375     18.01087070453904
  C   13.66549876223330      2.86021678822930     14.62319994247322
  H   14.38127294193345      2.09609656654194     14.91821316849220
  C   14.03523238502025      3.88617027719117     13.74634151334891
  H   15.03606589457466      3.94413312913465     13.32937369387764
  O   11.68053748929940      7.38372434894811     13.68248153136126
  N   11.10204704563824      1.57158825361561     11.40450798931395
  N   9.16854428398573      4.77681884906130     12.71668410093220
  N   11.16456607378914      6.22635851187469     11.42657164593901
  N   10.79455630764451      3.89048857373414     11.27538784705515
  C   11.89333792967443      7.52295671276812      9.54055730033605
  H   12.14963125791130      8.49647545394289      9.13229569820568
  N   12.90733529893557      3.05736695275737     10.85307848072461
  C   9.48395872179715      3.81905593409030     11.81763006774738
  C   11.20430750672427      5.10980484105534     10.67503006056802
  C   11.64134002329646      2.76507947192039     11.16510616158712
  C   7.89322493803648      4.84610923519496     13.16706192562985
  H   7.68168889327000      5.66710675708396     13.84310609172862
  C   11.48983144669237      7.42078257355016     10.86449851433678
  H   11.41776994571615      8.27317060397377     11.53122434280132
  C   8.55775883400334      2.86095916752459     11.38663705655547
  H   8.86365077849204      2.11738506495779     10.66224914245558
  N   11.52214449106136     -0.70635560917202     11.48541211902302
  N   13.33637899859484      0.69829671950691     11.11841888496527
  C   11.58576440605496      5.14335352180824      9.32597273537857
  H   11.58890176834863      4.21952158659688      8.75726244808702
  N   15.05422421134672      2.20292064022025     10.68072214752253
  C   13.72931516587986      1.97002998773457     10.88454404689680
  C   12.01069875587008      0.55380603201927     11.33241341842595
  C   11.94251467068707      6.36092124821892      8.75518012972642
  H   12.23415062815929      6.40926704160493      7.70842524013154
  C   15.50838314471754      3.54716282361257     10.28498916722849
  H   16.56996237883626      3.61551547209372     10.55389496334306
  H   14.95018570779997      4.27541564434487     10.88258639816261
  C   10.06620454724379     -0.92175032184291     11.54041363664405
  H   9.63839035802466     -0.15810734037322     12.19644733955926
  H   9.90939389092733     -1.90115343539058     12.00932214156680
  C   12.43254469264391     -1.86039051461533     11.40291430630094
  C   12.68787194136835     -2.34855727307458      9.96984831295968
  C   9.38609661003109     -0.87283198680017     10.16437938231302
  H   9.59270634500837      0.08618829315427      9.67306227139832
  H   8.29854908823723     -0.97683013085905     10.28172268933462
  H   9.73563845886209     -1.67814423242692      9.50758101915949
  C   16.00212255434738      1.07457364699719     10.67690516889289
  C   16.06646080839387      0.32463699436204      9.33895470020464
  C   15.30477361876482      3.85484271303531      8.79442488198621
  H   15.88222435129357      3.17446028140322      8.15751818624178
  H   15.62736496932770      4.88264128621155      8.57948332132468
  H   14.24318477609619      3.76380578912314      8.53573463339290
  C   7.26110435610858      2.91061715716606     11.89776427210595
  H   6.52071339823762      2.18243809359421     11.57375180272026
  C   6.91590334747190      3.93273130088379     12.78837780462146
  H   5.90962678396362      4.02438599438506     13.18536311531172
  H   8.92450241671094     -2.57874700103737     14.27364107785829
  H   7.54007663983581     -1.47238128730074     14.41338587460778
  H   7.75937275882560     -1.51478160643836     16.92302536084112
  H   7.44231234719284     -3.13310780589313     16.25377268428985
  H   9.08095443752881     -2.70387081312060     16.78958504155615
  H   5.23999603493828      0.50577779652874     14.84729161960818
  H   3.94898351169627      1.59340632498270     15.40432275834446
  H   4.41984674268220      0.92825774925335     17.79420453146629
  H   4.10610363046686     -0.51284243487607     16.80427543834008
  H   5.77827945976146     -0.08354770582139     17.23586804526547
  H   11.98691857552411     -2.66004148059269     12.00987034241462
  H   13.37732004180046     -1.56111384054127     11.86726839190372
  H   13.09606010779816     -1.53313987333830      9.36156894690498
  H   13.41576453470623     -3.17070669809084      9.98076342132721
  H   11.76838868316430     -2.71474102700211      9.49713496301137
  H   15.69256974810648      0.38836099843425     11.47199483468603
  H   16.98482464575854      1.48673843697351     10.93931841189242
  H   16.42853259621913      0.97070707397992      8.52995275544711
  H   16.75068866555158     -0.53003149358816      9.42462144645492
  H   15.07271955031880     -0.05290686700952      9.07220785846720
