124
Coordinates from ORCA-job DADHIB-CH3OH_1_5_tpss_d4_lanl2dz_631gpol_Fe2.opt
  Fe  10.36775489460658      6.12945346558624     13.22123094469846
  Se  7.30535686153626      7.55633355661302     10.36663515298031
  N   9.12901117015816      7.62177680655057     12.73448505718776
  C   8.37855283067719      7.62399385197209     11.79169788492922
  N   9.73699526405582      1.59447336479860     15.15152829461468
  N   11.74128794331473      4.57894724868303     13.95334057839293
  N   9.70621808173230      6.20469953068755     15.27909915686022
  N   10.09257137259278      3.87602374317901     15.50001212876987
  C   8.73674717044389      7.49686897110569     17.07143057792810
  H   8.38166118078362      8.45945558334634     17.43058783319456
  N   7.93031620247019      3.06445383238837     15.73354843233625
  C   11.40247453106364      3.74629134540956     14.95936938976870
  C   9.63590933528833      5.10503457562895     16.05259100272963
  C   9.20598518123547      2.77411286438554     15.46780859192528
  C   12.96768910763777      4.45453068367497     13.39671632968008
  H   13.17355250994231      5.13054842489587     12.57281775377067
  C   9.26774807083023      7.38576589534765     15.79015784482627
  H   9.32129652181688      8.22737805056824     15.10258648447090
  C   12.28206059554029      2.77450801995740     15.45428987063744
  H   11.97007573267006      2.14126543849647     16.27594494194640
  N   9.29019825461855     -0.65580549710169     14.83389586811564
  N   7.47937766324162      0.74465148740154     15.23836569263574
  C   9.13352510256166      5.13600354570930     17.36180282440565
  H   9.10641348650050      4.22075017782449     17.94439557652551
  N   5.76451446482037      2.24375805273567     15.69940113174016
  C   7.09524233734280      2.00046663390209     15.55750570009309
  C   8.81197775058936      0.59451659733391     15.08001818509483
  C   8.67082482514531      6.34663045991558     17.87386749734053
  H   8.27172465424201      6.39622582133046     18.88476286154065
  C   5.30767054460289      3.56856330304325     16.15259318840008
  H   4.26337671000191      3.67039618415519     15.83208589379953
  H   5.90570329613712      4.32357409098427     15.63116928028740
  C   10.74505755452766     -0.88421241988335     14.81098928373167
  H   11.20025148749707     -0.06669672380692     14.24401400863756
  H   10.91043613315522     -1.81736595586505     14.25896067570747
  C   8.36182703956233     -1.79739516303869     14.79907404321731
  C   8.00790770415323     -2.34934404372318     16.18738768764549
  C   11.37534977351291     -0.97209506341690     16.20901422689802
  H   11.16752341229216     -0.05628254192748     16.77585092186125
  H   12.46452247072995     -1.08929092135560     16.12132551656134
  H   10.98605989638727     -1.82546213174891     16.77677325837199
  C   4.79731981981591      1.14470436948873     15.54111477164321
  C   4.61771444940064      0.29620491725649     16.80756328608653
  C   5.43214114281992      3.77486275633188     17.66915408346091
  H   4.81018142852519      3.06362114993063     18.22584935838906
  H   5.11327315263434      4.79194508455635     17.93493041445996
  H   6.47623430628295      3.64597406132263     17.97778901360268
  C   13.53657585824389      2.63963143635268     14.85762658329520
  H   14.23159317567107      1.88279986825090     15.21558554251469
  C   13.88850480469325      3.49258464721153     13.80456478615021
  H   14.84532988910641      3.40585754735343     13.29722679519069
  O   11.96166902868157      7.58871694072232     13.93521724549648
  N   11.02999369799873      1.40979851627005     11.35349356464106
  N   8.98451922600742      4.57347434971120     12.59720692971647
  N   11.11551844648339      6.05033049150603     11.20307563796228
  N   10.65853009517691      3.71900443348418     11.18816418982457
  C   11.55698548821778      7.26082904039937      9.16394705483343
  H   11.74681768920856      8.21429003487743      8.67832342225175
  N   12.78479768544155      2.94144731291807     10.75727664988264
  C   9.33149284020580      3.62102840461254     11.70611130113103
  C   11.01924278734871      4.91487630211322     10.48882318719471
  C   11.52630770885404      2.61886252520519     11.09059273369715
  C   7.70948026970653      4.61042575238955     13.04262478410690
  H   7.47981886386959      5.42397690906789     13.72442904104560
  C   11.35507990047774      7.20936266924854     10.53903464991745
  H   11.35255765134043      8.10524914904084     11.15479632614290
  C   8.43630349637219      2.63472246364051     11.27557782972712
  H   8.76171655452939      1.88928651118534     10.56097039305202
  N   11.51641456937356     -0.85435081593178     11.44746934033616
  N   13.27981141830612      0.59443090919590     11.01663672620604
  C   11.19768110205049      4.87961493976597      9.09971027342264
  H   11.09894556658246      3.93502209157417      8.57280218184564
  N   14.94694832230121      2.13974661263860     10.52959818900331
  C   13.63157351971923      1.87528035799697     10.77022854526760
  C   11.96433593995064      0.41855312294341     11.26980252984586
  C   11.48592815772741      6.06740582656558      8.43002302002013
  H   11.62191550010839      6.06980642064815      7.35071887050847
  C   15.35802602689470      3.49826186339277     10.13704862203299
  H   16.44050641819117      3.55901669525512     10.30540554970345
  H   14.86451798106587      4.20675541815592     10.81296343671545
  C   10.06871656977171     -1.11331368325886     11.51730521232299
  H   9.62231000602634     -0.35881487978914     12.17193343567009
  H   9.94698863114148     -2.09485903022293     11.99218180764324
  C   12.46103173847311     -1.98030025437550     11.37142559344915
  C   12.73113118889865     -2.47158079488009      9.94216196302605
  C   9.37519259784284     -1.09606104307054     10.14718584977029
  H   9.54235617385402     -0.13264889630849      9.64963765825599
  H   8.29307987284026     -1.23816903570022     10.27463235365626
  H   9.74836803444595     -1.89167107399439      9.49140495775670
  C   15.91779731122269      1.03359531453974     10.46886209204195
  C   15.97889564407610      0.34348537150347      9.09875198378113
  C   15.01460198768209      3.86004607636675      8.68454542603957
  H   15.51320133339916      3.18912959385405      7.97496587438443
  H   15.33739777761897      4.88824534731296      8.47069074345472
  H   13.93140961129833      3.79846233199083      8.53202324181031
  C   7.13508891840845      2.65271690353449     11.78290611271502
  H   6.41823723792268      1.89877286629446     11.46405437081807
  C   6.75467953054237      3.66947706238863     12.66559983667045
  H   5.74367919909846      3.73270923695993     13.05690403115869
  H   8.83514988147005     -2.57303466456675     14.18308634491840
  H   7.45198273010191     -1.46153093835509     14.29117276309162
  H   7.57331811099176     -1.55533235446788     16.80534775739621
  H   7.27031802142364     -3.15737628991742     16.09152910117992
  H   8.88994831213161     -2.75281551093033     16.69972147291724
  H   5.15196185955634      0.51389537664924     14.71930522319734
  H   3.84538126227013      1.60106430395642     15.24085542424821
  H   4.21564921228458      0.89017502655638     17.63746631536356
  H   3.91980397322723     -0.52828471813019     16.60909391211857
  H   5.58030504850147     -0.13070623286777     17.11179362796344
  H   12.04061658875920     -2.78840191325853     11.98526198100956
  H   13.39721206949008     -1.64974884473313     11.83243566248258
  H   13.12280705604536     -1.65005918319222      9.33129495968307
  H   13.47732783018371     -3.27726568990315      9.95954834070163
  H   11.82125272034478     -2.86093052854070      9.46921974128692
  H   15.63162978398159      0.30887784925566     11.23749923165294
  H   16.89612245642217      1.45418386634162     10.73570116162540
  H   16.30192396712742      1.03646650128928      8.31199507817748
  H   16.69190389699643     -0.49113821820912      9.13212542460204
  H   14.99205906512199     -0.05433749731992      8.83444790796019
  C   13.34341406275331      7.81832396249437     13.58372438414911
  H   13.64344369794118      8.83746551312655     13.85828657924445
  H   14.00514504693185      7.08663233809469     14.06697090044061
  H   13.40105364527736      7.70187245306463     12.49880485397453
  H   11.87104323669491      7.63782174802598     14.90729087160292
