56
Coordinates from ORCA-job CECVUD-CH3OH_1_3_tpss_d4_lanl2dz_631gpol_Fe2.opt
  Fe  3.31339526988136      2.40365593685394      3.74212078687134
  S   4.23032827544712      6.48397416316227      1.78760695354445
  N   3.83968633680858      3.41292193412654      5.33419767427415
  N   1.19269995754830      2.09747926250822      4.22313688672260
  N   2.87455246971841      0.95484398618389      2.36059187128122
  N   3.54671375032293      0.82546636197051      4.99500652348115
  N   3.35885066023071      3.93791924159311      2.63954066072387
  O   5.62092035350596      2.10098003548411      3.10875620139367
  C   3.63266368341516      4.73492907995171      5.54581766116447
  H   3.19477253437576      5.28293695582826      4.71896219350884
  C   3.97101800964290      5.35473147900137      6.75014443039127
  H   3.79271968685261      6.42040725044696      6.86711203694537
  C   4.52887361350965      4.59181203982121      7.78035648368948
  H   4.79448959472051      5.04781697214535      8.73122746414720
  C   4.73320278046636      3.22060799983667      7.56885658437941
  H   5.15992534732310      2.59006073713700      8.34588659364673
  C   4.38733940205380      2.66584068991766      6.33899558527332
  C   4.61497664356371      1.22253163568458      5.96619611273513
  H   5.57308601937381      1.12381989913012      5.44167189936382
  H   4.63341945117057      0.56183208522198      6.84527181846259
  C   0.14475365609281      2.58896779802032      3.53546519199550
  H   0.32443427257878      3.52205098415275      3.00646577736403
  C   -1.09219322227036      1.93794942768664      3.49153301810324
  H   -1.91491999558368      2.36966821125845      2.92717360897803
  C   -1.23538064590515      0.72371535507533      4.17113413138269
  H   -2.17839430213727      0.18191585617510      4.14473573292826
  C   -0.14532180087014      0.21060924349965      4.88944807521837
  H   -0.22419527948231     -0.72834957272355      5.43390606061259
  C   1.04725100739282      0.93487601035827      4.89733933946522
  C   2.25974697065327      0.53473178858390      5.71216438318223
  H   2.26940137286767      1.14100452534938      6.62825133431266
  H   2.22417832391086     -0.52336480449506      6.00750361831835
  C   2.13394213317845      1.04099062659685      1.19013447724174
  C   1.78165428386088      2.30630175160081      0.65969134899174
  H   2.12510088667736      3.19596292591609      1.17696138837228
  C   1.03694986925849      2.39064148492709     -0.50530034309216
  H   0.78355042420270      3.37073783376088     -0.90498281272106
  C   0.60621222908061      1.22471097589728     -1.18799074349854
  H   0.02426030898889      1.31551586419327     -2.10266946293178
  C   0.93265175978518     -0.02234317838848     -0.69065502193684
  H   0.61342121350465     -0.92940906683158     -1.20155613304903
  C   1.69801125440287     -0.14741971198517      0.50168240371810
  C   2.04003897067290     -1.41074140411873      1.04112225765264
  H   1.71822431407365     -2.31836945271278      0.53309949415017
  C   2.76738648295486     -1.47227904379904      2.21402153518853
  H   3.03947035948447     -2.42473297778271      2.66294142285579
  C   3.16124002855797     -0.27365235887550      2.84211376580398
  C   3.97685892414520     -0.29975657693706      4.10847553869657
  H   3.89298058714714     -1.26637318054746      4.62635355052184
  H   5.02995157495280     -0.11869449772332      3.85963933183177
  C   3.74253421598640      5.02394176282750      2.28330386164038
  C   6.53943565068092      3.16790606261298      3.47270503898990
  H   7.43542533198077      3.12362070562402      2.84241569259797
  H   6.05518938989116      4.14683912615166      3.38164692899689
  H   6.82098744478895      2.98811828772608      4.51389598468489
  H   5.35672816456381      2.25951147292046      2.17846380143257
