50
Coordinates from ORCA-job CECVUD_1_1_tpss_d4_lanl2dz_631gpol_Fe2.opt
  Fe  3.34297800134652      2.10292160874747      3.58752483082188
  S   3.29094979422775      5.79238444284280      0.74814001254155
  N   3.86625658445001      3.16590137462356      5.12345206171621
  N   1.56022090649037      2.15281992414446      4.26436420909697
  N   3.06590998230880      0.69841706778784      2.23523426589322
  N   3.57858836878148      0.53109781105215      4.79297331858905
  N   3.52188034741470      3.52190360648571      2.40603238333853
  C   3.79695194778353      4.51682806062471      5.21392812922820
  H   3.57678769499611      5.03319346245017      4.28517024260994
  C   4.00455071267258      5.18914913669369      6.41810837245063
  H   3.94467780517706      6.27416309661782      6.44103762518468
  C   4.27803141382357      4.45053413663787      7.57486518686878
  H   4.43171054222787      4.94754359045661      8.52991597349736
  C   4.35407602585680      3.05476980053208      7.48276052041631
  H   4.57494331469377      2.44654063672415      8.35735310541372
  C   4.15450476627429      2.44570622688576      6.24458730116190
  C   4.33833982977343      0.96371306601860      6.01225037690469
  H   5.40241951972233      0.76852928086195      5.82231592112381
  H   4.04745398122236      0.37173958886732      6.89037178366398
  C   0.71867983392398      3.20167405490006      4.09860412846781
  H   1.07308701740887      3.98887705669660      3.43939966018500
  C   -0.51657340907569      3.25527321996510      4.74305140576886
  H   -1.16794911980087      4.10980709834863      4.57927834024136
  C   -0.88726686046763      2.20879961711388      5.59748765460521
  H   -1.84071887915600      2.23089699758652      6.11991554360200
  C   -0.00770783136227      1.13346676467745      5.77530797259060
  H   -0.26039633837282      0.30512518718835      6.43376803880514
  C   1.20687387803683      1.13215734533662      5.08953692051362
  C   2.20630329213151      0.00457908573946      5.11994395331509
  H   2.20686355038228     -0.52615895543383      6.08144821498822
  H   1.94771431088461     -0.71800781269633      4.33476584351491
  C   2.40151957993035      0.76369948731850      1.02233223641115
  C   1.62965065445584      1.90295045121845      0.69206030822823
  H   1.55853985700896      2.71294095159882      1.40634476285398
  C   0.99797853218561      1.97825691356619     -0.53769655587916
  H   0.41893364862514      2.86474439438512     -0.78669453642254
  C   1.10060413330684      0.92137034852920     -1.47863811113661
  H   0.60335283210308      1.00684110479579     -2.44225077562365
  C   1.81868370800696     -0.21713596088195     -1.16594403853063
  H   1.88907576920071     -1.04494879740792     -1.86950237797600
  C   2.47605055657523     -0.33118409949433      0.09021723050867
  C   3.18509787475661     -1.49721053725814      0.46893344224456
  H   3.24604327319206     -2.33621603630455     -0.22200892847656
  C   3.76920367410135     -1.56865712888390      1.72166861657035
  H   4.29157988304196     -2.46252176649744      2.05484997082514
  C   3.69429215708433     -0.44849533674218      2.57112277435998
  C   4.33586385369417     -0.44234780621626      3.94157094615468
  H   4.35433576072912     -1.45064935474216      4.38387689403600
  H   5.37112282017089     -0.07855847830860      3.88012034373023
  C   3.43373044805442      4.49267607284799      1.69964450100254
