52
Coordinates from ORCA-job CECVUD-OH_1_2_tpss_d4_lanl2dz_631gpol_Fe2.opt
  Fe  3.54651272733555      2.23354898779651      3.60759719990295
  S   4.50298068888725      6.22998477932930      1.69415889746420
  N   3.90329188983210      3.27236680325006      5.24969289002747
  N   1.62392136390523      2.12033296204305      4.13292035423807
  N   3.08680679084634      0.77788755937764      2.26202512630446
  N   3.78945788335281      0.66500461152227      4.83635431819039
  N   3.32083637035358      3.84575546308225      2.62903611715916
  O   5.29715780122385      2.09808006144980      3.20084524064651
  C   3.58057611361364      4.56234476553415      5.48374016615073
  H   3.13681560784008      5.09421263150599      4.64946601719420
  C   3.82062411126742      5.16507909945004      6.71962009546109
  H   3.55813655140077      6.20962430005944      6.86424586539065
  C   4.39656048745746      4.40893312827329      7.74608758282744
  H   4.59076364878768      4.85260927233285      8.71997870923620
  C   4.71521395330801      3.06640044246552      7.50507168411823
  H   5.15908680634346      2.44577917821344      8.28019127383103
  C   4.46259948969675      2.52802149466928      6.24330730918858
  C   4.81358634663814      1.12222514766659      5.83128073412241
  H   5.76983404107011      1.14156898070507      5.29467320371301
  H   4.88104597886653      0.43655249789065      6.68750898230916
  C   0.63970797367760      2.90325650086348      3.63867943557325
  H   0.97822680223610      3.72906289809226      3.01934073148018
  C   -0.70395497526923      2.64906599992208      3.91007459396449
  H   -1.47045723127052      3.29713481206848      3.49350116896578
  C   -1.03501939441366      1.54943864510708      4.71156493038323
  H   -2.07466861026785      1.31843274469640      4.93291831486865
  C   -0.01039886097430      0.74934489346046      5.23004506518724
  H   -0.23426040528313     -0.10593297747642      5.86419905201727
  C   1.31503154676188      1.06751284502862      4.92400104398437
  C   2.48761076833535      0.30529520732388      5.50253328533935
  H   2.57502269648896      0.54920992424864      6.56995142957424
  H   2.32321219889007     -0.77756383706750      5.43079787361556
  C   2.36876191928697      0.85962000164741      1.08274672863406
  C   1.94921249352552      2.11453461667675      0.57823146735887
  H   2.23980412362641      3.01037407625308      1.11674565688349
  C   1.23086673251916      2.18306993523085     -0.60349270238497
  H   0.93000485049921      3.15623073455231     -0.98678524866221
  C   0.89379806422199      1.01224857704018     -1.32988748889987
  H   0.33024641250601      1.09261796877389     -2.25685705446843
  C   1.29514659789104     -0.22436782678196     -0.86348823452124
  H   1.05696172025223     -1.13423194887374     -1.41205775896838
  C   2.04057710807760     -0.33387380699835      0.34295730757082
  C   2.47676067105738     -1.58435327443280      0.84065535753239
  H   2.23585757078812     -2.49435431173932      0.29347785576938
  C   3.20014288163707     -1.63382343849789      2.01642140450077
  H   3.55372876617743     -2.57619812943913      2.42795493779863
  C   3.48451872113788     -0.43131562799771      2.69495645399753
  C   4.30478482298862     -0.42340176329653      3.95660847961046
  H   4.28835091441012     -1.39560428255012      4.46960070703900
  H   5.33838984623091     -0.15994565833093      3.70402552877743
  C   3.86174221047827      4.85065505793538      2.23369804416944
  H   5.65564241174986      3.00051927794388      3.05595986583302
