52
Coordinates from ORCA-job CECVUD-OH_1_6_tpss_d4_lanl2dz_631gpol_Fe2.opt
  Fe  3.83105144615959      2.49336468069551      3.45266687049576
  S   2.96917135613088      6.85660151720607      1.90587329852485
  N   4.08564285354118      3.36839253149730      5.45074850860528
  N   1.64103917098688      2.24440138647828      4.00636902917631
  N   3.14167083247095      0.75804173718142      2.21309492185152
  N   3.83880114266952      0.76373581630230      4.88837130730703
  N   3.48964532644472      4.17461345713312      2.58050113746816
  O   5.62028064949625      2.09319257074919      3.20172639110868
  C   3.82828437565540      4.64870916322017      5.78259265077830
  H   3.40683377568902      5.26863725543831      4.99619739194068
  C   4.09049514461963      5.15046240767845      7.05945106433800
  H   3.87191136257866      6.19029617665121      7.28806926535847
  C   4.63126761471544      4.28984294662024      8.02142260399458
  H   4.84331513481514      4.64689194902477      9.02695417408687
  C   4.88945679575577      2.95715435990791      7.67675154576466
  H   5.30212868608351      2.25905846585354      8.40202706637117
  C   4.61074766049175      2.53036183190235      6.37588731034513
  C   4.88798707847571      1.12945446295223      5.87704242080588
  H   5.84219045978837      1.12880767656621      5.33457251801101
  H   4.94121660978526      0.41007227790239      6.70888974866876
  C   0.64317844170426      2.85868639992932      3.34018059767965
  H   0.92949808772375      3.74051650895556      2.77323861369685
  C   -0.67310592102470      2.39141965443465      3.36387560237538
  H   -1.44766846421932      2.91879529580413      2.81315818656601
  C   -0.95680480975085      1.23236988809833      4.09373924389250
  H   -1.96647930465583      0.82795827769065      4.12243557378378
  C   0.07831645306733      0.59607367515830      4.79028032815395
  H   -0.10963156561781     -0.30335553926712      5.37332399549236
  C   1.36527632602386      1.13746072435224      4.72997877308525
  C   2.51378193303941      0.56656336718967      5.53918055169119
  H   2.54032171192569      1.09694797873316      6.50124608461204
  H   2.34497539428811     -0.49838058293449      5.75756176646094
  C   2.38743184716407      0.81122158221051      1.06503128557276
  C   2.15142281266942      2.06033945473057      0.43766529324850
  H   2.60033568373442      2.95250608054518      0.86607194857190
  C   1.37853814763837      2.12134991533182     -0.70910585073850
  H   1.20816646099135      3.08209432494326     -1.19113276201138
  C   0.81237559142339      0.94711382691518     -1.27218261049997
  H   0.20977944750311      1.01986710136431     -2.17496617105655
  C   1.03614969400713     -0.28379564009021     -0.68391873909253
  H   0.61769119677480     -1.19238140685577     -1.11409499273180
  C   1.82877663917086     -0.38412345602824      0.49268658415137
  C   2.09721454892298     -1.61774628728950      1.13626698442534
  H   1.68572972864481     -2.53816836725056      0.72450677447774
  C   2.87259828815083     -1.64058610748848      2.28099572273610
  H   3.09521417205563     -2.57314290747726      2.79454056971040
  C   3.37580756424326     -0.42347527657890      2.79405962084060
  C   4.23703568079836     -0.38568249154299      4.03748542946570
  H   4.17265428162685     -1.33578292478295      4.59060938857222
  H   5.27835376196762     -0.21063927290314      3.73789147484895
  C   3.27100797964072      5.32796543622745      2.28978686903910
  H   6.14008071401414      2.73488809691412      2.67727463797852
