50
Coordinates from ORCA-job CECVUD_1_3_tpss_d4_lanl2dz_631gpol_Fe2.opt
  Fe  3.46000454322811      2.34977865360237      3.68190912004023
  S   4.74995401873086      6.25154596860349      1.61579194367774
  N   4.05448245740453      3.35968602198005      5.24286776303465
  N   1.39147486246836      2.05563623654985      4.18744801739887
  N   3.05268711240934      0.90645205980905      2.31216757493420
  N   3.71520568488842      0.76936533711036      4.94038213497721
  N   3.70736698316425      3.80464251862965      2.54972172994198
  C   3.88215615276633      4.69159146806276      5.42428614715098
  H   3.47155798821617      5.23459444671224      4.58032470059340
  C   4.22420250755412      5.32362204334914      6.62090448409193
  H   4.07512686826429      6.39579833852485      6.71618481247799
  C   4.74994908696305      4.56531296528551      7.67114992100833
  H   5.01779972306691      5.03224820845246      8.61598774542707
  C   4.92580017589145      3.18624856982073      7.48662320223107
  H   5.33557056781029      2.56140167068339      8.27707509075599
  C   4.57919834177389      2.61879454278050      6.26347474865328
  C   4.79281695466524      1.17089816912095      5.90398673765659
  H   5.75224269804532      1.06727555568530      5.37959171689831
  H   4.81461200747686      0.51588086005801      6.78694109413465
  C   0.33928200366924      2.59071708614037      3.53748707627658
  H   0.54210012826322      3.50124146300189      2.97894979935367
  C   -0.93085070924091      2.00740112539458      3.56751001305786
  H   -1.75507937298898      2.47196888052457      3.03238261649880
  C   -1.10587375710752      0.81698450959698      4.28103603541417
  H   -2.07650921307559      0.32672818419979      4.31124068155203
  C   -0.01229608966214      0.26011558904503      4.95957521627307
  H   -0.11578773349997     -0.66170315718799      5.52844346560412
  C   1.21681550517928      0.91754247623017      4.89599003287343
  C   2.43728664044980      0.47355224106084      5.67380985580465
  H   2.47172316160986      1.05008406961555      6.60838359530244
  H   2.39104773179382     -0.59212609043580      5.93749720406386
  C   2.33036865988645      1.01224045008108      1.13317909200211
  C   1.97522804127475      2.28410775113173      0.62037416754269
  H   2.31322895236479      3.16800227515385      1.15055496963512
  C   1.25004050912417      2.38156435722083     -0.55560248316443
  H   0.99751953664165      3.36617492219149     -0.94433880805670
  C   0.84110943896855      1.22393109001964     -1.26559254664853
  H   0.27512797590176      1.32605079242530     -2.18899499944168
  C   1.16842320357701     -0.02897321123250     -0.78433000241870
  H   0.86491383348843     -0.92950827365253     -1.31574144655882
  C   1.91410378421554     -0.16844554066647      0.41897070176571
  C   2.25372619789568     -1.43827817089085      0.94370734054301
  H   1.94745263864922     -2.33883532688135      0.41415250297848
  C   2.96028630848377     -1.51706515563636      2.12899845090714
  H   3.23116662287937     -2.47543984827337      2.56576026658528
  C   3.33685793575221     -0.32670339221153      2.78052346474125
  C   4.14102744914827     -0.35982570121253      4.05390309053607
  H   4.04905622523310     -1.32621302709343      4.57047886767617
  H   5.20227016028371     -0.20006805786227      3.81770329779338
  C   4.17982549605336      4.84390405538245      2.16006979642290
