51
Coordinates from ORCA-job CECVUD-oxo_1_1_tpss_d4_lanl2dz_631gpol_Fe2.opt
  Fe  3.58258964020922      2.31007807671907      3.60366578699784
  S   4.69157469208096      6.02116743688049      1.55955327469878
  N   3.91843427811753      3.31388612314614      5.26745901168579
  N   1.58737678700046      2.10153873441283      4.13765696448141
  N   3.07634574387446      0.85034487557699      2.23807593327950
  N   3.80579177126485      0.72140782937793      4.85356433897685
  N   3.17330434912882      3.92766127957508      2.67355368841680
  O   5.17823796397334      2.22665815403659      3.21090267722700
  C   3.59006613659763      4.59951572468600      5.50603705303781
  H   3.10823137594699      5.11894640548934      4.68478848201141
  C   3.87068207196171      5.20777678601773      6.73124822691325
  H   3.60170506815877      6.24950648467646      6.88408159577599
  C   4.49613864104867      4.46145749402730      7.73483425765336
  H   4.72472255692202      4.91040551157690      8.69884627642136
  C   4.82014598104454      3.12132971299626      7.48566379856574
  H   5.30183694956279      2.50830566451113      8.24406220228534
  C   4.52467797816409      2.57678179602730      6.23653209675141
  C   4.86528165453260      1.17058580986249      5.81369748239642
  H   5.80887191104650      1.18470103337245      5.25453441022674
  H   4.95378807691460      0.48506896693296      6.66812748197903
  C   0.57119050865948      2.79604479513765      3.58535852606107
  H   0.87464903990107      3.64576341830943      2.97924203385697
  C   -0.76102595169013      2.42958071268447      3.78241247838256
  H   -1.55579977439852      3.01180670364639      3.32349129844764
  C   -1.04161345328437      1.30122558092468      4.56189580483270
  H   -2.06875335888184      0.98049604800688      4.72226875099028
  C   0.01661520255169      0.58711338395169      5.13748455798660
  H   -0.16858241955190     -0.28880641917896      5.75576795649821
  C   1.32320235604724      1.02426839831947      4.90860081746791
  C   2.52676493697814      0.38746808534820      5.56715483831733
  H   2.60890945894158      0.78027214748129      6.58984519673059
  H   2.41321586309696     -0.70188620557800      5.64300069560587
  C   2.35356964548317      0.93040492770293      1.06210237478393
  C   1.99166971144836      2.18716086924474      0.51968947906150
  H   2.31528805866009      3.08447381633569      1.03533350105825
  C   1.26837266630540      2.25209577195481     -0.65925184800221
  H   1.01106551081559      3.22626656409668     -1.07072720926232
  C   0.86984906963663      1.07683315442512     -1.34630463608473
  H   0.30417703302034      1.15513219381746     -2.27223013747991
  C   1.21363691924304     -0.16228839449153     -0.84237584568837
  H   0.92762030989316     -1.07683727330309     -1.35948824433568
  C   1.96205074955366     -0.26895692554765      0.36238015336850
  C   2.34125846834202     -1.52253301718669      0.89633234306636
  H   2.05081828909023     -2.43673527248602      0.38101203888231
  C   3.07505367168666     -1.57005999804302      2.06540630734286
  H   3.38915533234949     -2.51520021379109      2.50198954254445
  C   3.42384270142772     -0.36255069838006      2.70473954921688
  C   4.26934050127000     -0.37110685017172      3.95186223916620
  H   4.24161163350185     -1.34663013410969      4.45803438833257
  H   5.30439440570790     -0.13245613540351      3.67717033788998
  C   3.87154928664453      4.80481706638198      2.20691767117971
