42
Coordinates from ORCA-job AVODUK-oxo_3_3_tpss_d4_lanl2dz_631gpol_Co3.opt
  Co  1.86348176446463      7.34874239865850      4.05287186491679
  N   1.88297906382318      5.88833351314206      5.43908534899272
  H   1.77634499234941      6.25195535643787      6.39628976881269
  H   1.12175079212006      5.21036985484950      5.30034341727082
  N   3.04308046616195      6.09993729019642      3.08061504864718
  N   1.80737573419883      8.67168896619383      2.62019059630114
  N   0.20074262265542      6.60691522714322      3.12512868897157
  H   0.24583806994573      5.58289287849961      3.04757870571391
  N   0.52921913605169      8.50875468939831      5.03765499354559
  H   0.49713603079379      8.23720733137704      6.02992819836290
  H   0.87217213701044      9.47918669768746      5.02889587831712
  O   3.12675590516984      8.09314779668127      4.81811201601764
  C   3.21668863077478      5.19249676285730      5.32532671055060
  H   3.17286025262288      4.20945651681634      5.80941306443910
  H   3.95234589634199      5.81253317650003      5.85719891307564
  C   3.56863717508087      5.11225090691754      3.86720829636631
  C   4.43976841096928      4.16263795556581      3.32823790128063
  H   4.83779991033618      3.37750575930148      3.96853977078642
  C   4.79872631288231      4.24660749445091      1.97623634818536
  H   5.48244784725335      3.51823558787275      1.54380089569196
  C   4.27726576509837      5.28687421966575      1.19507053777404
  H   4.54458245825796      5.40359729917541      0.14709878745508
  C   3.40102606070151      6.20511724946744      1.77604242841175
  H   2.99808184811692      7.03750622879738      1.21106227783096
  C   2.59956355768373      9.77722529558708      2.61383984196201
  H   3.32359760156237      9.87248709108800      3.42048618428390
  C   2.48128036900397     10.72943977272450      1.60109560382622
  H   3.13092671281350     11.60225100251509      1.61844314058500
  C   1.52647605344905     10.53975576124231      0.59119959576913
  H   1.40964478750974     11.27491076582535     -0.20323874960009
  C   0.72048685308665      9.39162845051455      0.61179838816161
  H   -0.02415520044464      9.21514764366901     -0.16262076257271
  C   0.87969200661752      8.45948362898775      1.64060290505248
  C   0.14177748643894      7.14855371106809      1.71549237209398
  H   -0.90334366987075      7.24825176583693      1.39629338758655
  H   0.61456263461561      6.40786251489410      1.05754963415310
  C   -1.00890670810331      6.96864187872183      3.96516103658827
  H   -1.03949524667335      6.28282242669312      4.82106229893337
  H   -1.92902587467823      6.82270842196076      3.38528518712151
  C   -0.83930483684498      8.40998701096032      4.41641519061042
  H   -0.87992344329936      9.11369891699488      3.57976418372125
  H   -1.60286036604794      8.69879278306268      5.15024010400594
