43
Coordinates from ORCA-job AVODUK-OH_3_2_tpss_d4_lanl2dz_631gpol_Co3.opt
  Co  1.86332167644869      7.33587163069044      4.03371314213578
  N   1.86648921029480      5.89549964005582      5.42193412310328
  H   1.81093439057159      6.30277493499078      6.36520970837146
  H   1.07772736373140      5.23947290664041      5.34450045374668
  N   3.07722594292968      6.12550552601507      3.07647689291073
  N   1.78108333877661      8.66849756476388      2.60944105185972
  N   0.21240451691502      6.62045684084851      3.13404867526106
  H   0.23973884204314      5.59316575739934      3.10560102726926
  N   0.59769479391361      8.49399751967769      5.06301837751189
  H   0.54516070854405      8.19586240854955      6.04632448830404
  H   0.98256140931164      9.44797670519362      5.09080360810844
  O   3.18998526669378      8.13517341455867      4.89797585404029
  C   3.16831876478389      5.14533887119811      5.29792105026102
  H   3.08262692668593      4.15001481752958      5.74971277635291
  H   3.91910431028538      5.71614528693832      5.86433354337396
  C   3.55039454281335      5.09214110504961      3.84520798491715
  C   4.40296831583588      4.12343042710658      3.30861504690801
  H   4.75621436978235      3.30937333543750      3.93874995678255
  C   4.79656320007174      4.22200175753283      1.96768650853784
  H   5.46128810348401      3.47758858473433      1.53333327689603
  C   4.32933278369528      5.29867745469193      1.19841501008800
  H   4.62749812638320      5.42665334347884      0.16023831021261
  C   3.46835734487615      6.23254530683233      1.78021713922733
  H   3.09984592468920      7.08604366733606      1.22162534241654
  C   2.48895085107256      9.82956059027170      2.63088194736606
  H   3.15247095628682      9.98690857651784      3.47776843776617
  C   2.35193010126868     10.77390475216054      1.61356460089743
  H   2.94016762895896     11.68823958639971      1.65687648637733
  C   1.45517029137832     10.52428404029405      0.56416804801276
  H   1.32574175951961     11.24946925805470     -0.23718948657391
  C   0.71419488190966      9.33314518157300      0.56456004353157
  H   -0.00025581851544      9.11700932148444     -0.22775723850378
  C   0.89185592849307      8.41641784611055      1.60321013477488
  C   0.18682531371748      7.09087464483135      1.69862349333239
  H   -0.84999777285237      7.14884136949232      1.34443464169857
  H   0.69979034013678      6.33213345206768      1.09340121471287
  C   -0.99348498274738      7.04176078814186      3.95461120424346
  H   -1.06983268809616      6.35115003846821      4.80358741923812
  H   -1.90807577803020      6.94248087215719      3.35695587119583
  C   -0.76705624621703      8.46988067261411      4.43021632692144
  H   -0.76776286200103      9.18563569378716      3.60300903600690
  H   -1.53093707821862      8.77668666648373      5.15542084270856
  H   4.05834500037584      8.05818784183989      4.42747362769669
