43
Coordinates from ORCA-job AVODUK-OH_3_6_tpss_d4_lanl2dz_631gpol_Co3.opt
  Co  2.00399402001850      7.40592107891829      4.11682583470827
  N   1.93546104324057      5.66574285950308      5.43541341221298
  H   1.85443414686011      5.95628980708004      6.41687727402408
  H   1.14363642391299      5.03316157334961      5.26874798824834
  N   3.15046072000055      5.87839880120036      3.02512078577723
  N   1.82046958786670      8.81782778040556      2.46161483326950
  N   0.15577934747968      6.74458667335478      3.09371981870633
  H   0.16160795692671      5.72273762106302      3.00808272520024
  N   0.48887563989817      8.57560257228851      5.18769053815644
  H   0.37413722277902      8.21977195139341      6.14483479293072
  H   0.80898671867400      9.54440915502549      5.29845798625064
  O   3.36071647158794      8.18039248949364      4.94002084960768
  C   3.21019908429417      4.91054162681422      5.27025314937756
  H   3.13358478501264      3.88528927830886      5.66107168513246
  H   3.98850901048145      5.41706145678597      5.86482460201882
  C   3.65402386755937      4.90589151157519      3.83282704464253
  C   4.60284916487079      3.94720732328791      3.36396960444553
  H   4.97645905329489      3.18718256874022      4.04848598776597
  C   5.03325765398451      3.99314456317873      2.03576107130586
  H   5.75209847247214      3.26930964215587      1.65690259182661
  C   4.51473848702993      4.99828604264151      1.20745796980696
  H   4.81857507517305      5.09188336580050      0.16682013371554
  C   3.58081528818804      5.92468088934278      1.74838461601139
  H   3.19290530633444      6.73424605349475      1.13519444397637
  C   2.54488995445232      9.95031281189734      2.34920007823209
  H   3.35310891461375     10.07824799168584      3.06488728152801
  C   2.28961354098612     10.92621638467917      1.34836324935085
  H   2.90938632162582     11.81968433105226      1.30468658762883
  C   1.24472999661417     10.71277374369457      0.43612298169727
  H   1.01990142575004     11.44412039140502     -0.33778284476390
  C   0.49714013223201      9.53686826172812      0.54693437100416
  H   -0.32391910744731      9.32697527176357     -0.13658380262451
  C   0.81053529434368      8.60506896356712      1.57553123864918
  C   0.08963777197977      7.29101380457573      1.70514353839583
  H   -0.95219854617566      7.37496086631910      1.36170385190952
  H   0.57572202020741      6.56492927930873      1.03081310165643
  C   -1.02868919166810      7.13004994743867      3.94574553171437
  H   -1.07466163327144      6.41184959803265      4.77435240527046
  H   -1.96265265259501      7.04271208734290      3.37483017255118
  C   -0.82679839885841      8.54248263346280      4.47749219095836
  H   -0.79201237376084      9.27732211332018      3.66465822055125
  H   -1.65143366808287      8.82567861492747      5.14401160179961
  H   3.84600565111407      8.77994621859589      5.54945050537270
