47
Coordinates from ORCA-job AVODUK-CH3OH_3_5_tpss_d4_lanl2dz_631gpol_Co3.opt
  Co  1.86797680103295      7.27973970593858      3.89072390483147
  N   1.79637474723001      5.69031382589937      5.42212481231456
  H   1.70405799474073      6.00716523014391      6.39471585171483
  H   0.97698233635860      5.09244594749971      5.25620970113724
  N   3.01035998192801      5.77336149140598      3.05089964145450
  N   1.61141990986460      8.76740924801624      2.49119444002700
  N   0.04801124482800      6.58814814176453      2.87802011085418
  H   0.07571664644737      5.56685534304811      2.78648210648362
  N   0.37882718405443      8.34532534082811      5.10199876758234
  H   0.23061789267018      7.94121695173911      6.03481196660470
  H   0.67473118739382      9.31563350625286      5.26837495063426
  O   3.51064109259277      8.16025169680150      4.80722430667046
  C   3.03576959353094      4.85296483307012      5.30850584964051
  H   2.88512377323091      3.85821470808430      5.74509098922720
  H   3.82651045234699      5.35105083523571      5.88510215617941
  C   3.44392318829858      4.76308907824383      3.85754402311284
  C   4.26796193949682      3.74848823874490      3.36261022554860
  H   4.59532156052145      2.94599112520026      4.02059241047198
  C   4.66391795600472      3.78318125243088      2.01812102424614
  H   5.29978189503834      2.99740288015499      1.61422933304282
  C   4.22546306021719      4.83723733669449      1.19741726279906
  H   4.51520983146419      4.90000624092091      0.15105610045243
  C   3.39197329326917      5.80998717339341      1.74393366451241
  H   3.02481838453062      6.64429007175573      1.15149731668617
  C   2.24101029500105      9.97440428893695      2.54597741090864
  H   2.91280784136829     10.12631499435163      3.38539156757918
  C   2.04622528569191     10.95344653069766      1.57640490724572
  H   2.58237483307686     11.89727797671028      1.64251078032921
  C   1.14878412061853     10.69391164079551      0.52155251687189
  H   0.96459589591026     11.44576788121504     -0.24381810543265
  C   0.47582828944001      9.46327596503948      0.47996063103574
  H   -0.23439784011942      9.24511412873361     -0.31525807112117
  C   0.71409748965165      8.52069056754777      1.48073066835105
  C   0.03943336546854      7.16853925516404      1.50198040546646
  H   -0.99038040859445      7.24274294246072      1.12493222904343
  H   0.57110685181792      6.47288970012337      0.83863003132670
  C   -1.12911566203670      6.96119943084590      3.73655072283292
  H   -1.21189055443745      6.19969212437550      4.52186061946273
  H   -2.05493748941846      6.93359665175530      3.14617882362488
  C   -0.92468909186942      8.34375372478853      4.35214624598997
  H   -0.86912460590243      9.12181098416807      3.58444815419347
  H   -1.75862006185080      8.58574673969439      5.02232092815923
  C   4.87824021643902      8.32529501635745      4.25917404627722
  H   5.24715258942853      9.32010949910490      4.52486098701318
  H   5.52329459352352      7.54650978681175      4.67703436275172
  H   4.78333249990259      8.21689177318244      3.17831122085031
  H   3.52659959979896      8.36794819387185      5.76602800101129
