42
Coordinates from ORCA-job AVODUK-oxo_3_1_tpss_d4_lanl2dz_631gpol_Co3.opt
  Co  1.86065787777083      7.34246859263799      4.05049823027649
  N   1.88742155244089      5.88711891545301      5.43888332957918
  H   1.77256347273403      6.25132740093477      6.39494093240597
  H   1.13971586226884      5.19408901844499      5.29947398755428
  N   3.03801891549284      6.09560679556698      3.07782527636150
  N   1.81081221742214      8.66775108188343      2.62074300016688
  N   0.19271520683619      6.60574980065233      3.11446524361000
  H   0.23577195894460      5.58244349672538      3.02858635184912
  N   0.52156893360464      8.49877164187795      5.03173269853867
  H   0.49233325253866      8.22592136141823      6.02365951840235
  H   0.86859410938103      9.46771612381002      5.02190233338337
  O   3.10772289237914      8.09663665570147      4.83086984895389
  C   3.23513902017704      5.21934996838316      5.32910201242525
  H   3.22334616964559      4.24741819824069      5.83661921353893
  H   3.95901791564552      5.87422271551868      5.83724674909224
  C   3.57681299615976      5.11925901767061      3.87133128394950
  C   4.45121127096844      4.16910920216009      3.33687557847020
  H   4.86021808478813      3.39490457246462      3.98350828230840
  C   4.79638036316462      4.23815536517876      1.98053009694802
  H   5.47962812936511      3.50821255410448      1.54988560402148
  C   4.26096826519622      5.26612030700878      1.19176694156950
  H   4.52048377642815      5.37361208237215      0.14079627864713
  C   3.38267283011215      6.18631371158684      1.76958080416736
  H   2.97140063816415      7.01025689265681      1.19816094718134
  C   2.61175666966352      9.76712962593206      2.61796399511262
  H   3.33743530546827      9.85044360864849      3.42456192144349
  C   2.49717414395710     10.72565657855183      1.61087388543300
  H   3.15203619712916     11.59452063258319      1.63177798619028
  C   1.53846868811128     10.54818618971075      0.60239980643481
  H   1.42448973356119     11.28863898030278     -0.18748995799634
  C   0.72428760902210      9.40575888926190      0.61905000573751
  H   -0.02349176980649      9.23884069747024     -0.15445571418843
  C   0.87963910170672      8.46689015884375      1.64248623153829
  C   0.13214768576969      7.16036409173162      1.71040776245537
  H   -0.91312035622459      7.27151650559676      1.39539319258792
  H   0.59566050100593      6.42201773385096      1.04331850184314
  C   -1.01631499657228      6.96092907363182      3.95683781886411
  H   -1.04394500885815      6.27220485754143      4.81045574076243
  H   -1.93758848492619      6.81640264642207      3.37849013073880
  C   -0.84714599827396      8.40092711363855      4.41234086912202
  H   -0.88962042193728      9.10750351178797      3.57822299935505
  H   -1.60894431042479      8.68713363204120      5.14918028116470
