41
Coordinates from ORCA-job AVODUK_3_1_tpss_d4_lanl2dz_631gpol_Co3.opt
  Co  1.83629418473861      7.34560603538227      3.98008627878466
  N   2.10047298230304      6.09246307766355      5.49236191517973
  H   2.85808749455315      6.49821665512070      6.06792871893035
  H   1.31594430536892      5.95929994773570      6.14489574634775
  N   3.06716606534246      6.16720933137645      3.07376561933159
  N   1.72095865216958      8.62029553805168      2.55343993755257
  N   0.23079193341950      6.59740229107987      3.23856440380762
  H   0.29757402839327      5.57157710238236      3.28342932325492
  N   0.67765636921688      8.58259931725645      5.04399076316913
  H   0.66212076185007      8.35271263434787      6.04760050412505
  H   1.00593290814429      9.55796943479798      5.00150390940833
  C   2.56420380925953      4.75040726550798      4.98264619501328
  H   1.67370655060853      4.14322464074112      4.76690806002315
  H   3.13821621863635      4.22270777954786      5.75399013429156
  C   3.37547680879285      5.00483754517010      3.74236458922279
  C   4.36138574430790      4.13807268553208      3.27365573815744
  H   4.59708725111236      3.23570925156323      3.83453225242168
  C   5.03601363601434      4.44430246821366      2.08303402504562
  H   5.80384586619876      3.77507465790217      1.69915730695719
  C   4.71111545893801      5.62619649602437      1.39951893331614
  H   5.22044411904368      5.90847627276752      0.48096679574353
  C   3.72578790593233      6.46451310745225      1.91557539863137
  H   3.46381340885466      7.39597292173470      1.42740451590063
  C   2.43805405311184      9.77222024875589      2.50645620062831
  H   3.16208553130166      9.94314189845420      3.30290199782291
  C   2.26219606659335     10.68221892639710      1.46194840747936
  H   2.85459802688307     11.59425548339580      1.44170350314505
  C   1.31950609600181     10.39589439489262      0.46144335368783
  H   1.15897220696306     11.09397974807927     -0.35814095925137
  C   0.57946413991437      9.20405631801558      0.52485316485882
  H   -0.15700760648219      8.96052367100640     -0.23842789799054
  C   0.80396999958152      8.32839050326433      1.58792099771852
  C   0.15106738194866      6.98505371563739      1.77125288858760
  H   -0.90056830413412      6.97261988692404      1.45777009328375
  H   0.68587981979533      6.21238604719801      1.20401295239493
  C   -0.94301302499632      7.04423831641437      4.09751919647084
  H   -0.96568041145401      6.38833355578684      4.97593359545119
  H   -1.87422967253784      6.89433478775620      3.53621749212664
  C   -0.72442173968065      8.49875618501043      4.48613121938162
  H   -0.78451050255630      9.16729377537104      3.62258940470717
  H   -1.45925852345240      8.82575608028809      5.23109332488103
