47
Coordinates from ORCA-job AVODUK-CH3OH_3_1_tpss_d4_lanl2dz_631gpol_Co3.opt
  Co  1.73862528549359      7.26412462516553      3.96489665941979
  N   1.73659869572098      5.83254811042059      5.36080182457786
  H   1.71563711374564      6.18096431589283      6.32858707024234
  H   0.89470017503196      5.24662962119341      5.28588426504495
  N   2.92012498636420      6.03404786856378      3.01357764564556
  N   1.65983737327343      8.59929311566544      2.55128288928230
  N   0.14838802893203      6.52485000567087      3.09137280418598
  H   0.19723420829105      5.49804940056917      3.07936485399343
  N   0.48415811481607      8.45059759675923      4.97077612149435
  H   0.39725695586693      8.19972878166224      5.96494374025194
  H   0.82601283960680      9.42078157698177      4.95998868436180
  O   3.29846428230567      8.18779287851640      4.82062883676602
  C   2.95026789709381      4.95179225521981      5.19326009012538
  H   2.74530677957454      3.94100657999025      5.56494116751695
  H   3.75492937724792      5.37225116241802      5.80980396649270
  C   3.34906556930131      4.95923132134443      3.74130442373315
  C   4.17766962592160      3.98382185003280      3.18096868391595
  H   4.49425723484544      3.13469419662344      3.78358905974089
  C   4.59649419079894      4.11862725479595      1.85116227557945
  H   5.24124414250206      3.36792261599499      1.39855682117873
  C   4.17660833673603      5.23811911866887      1.11901173435227
  H   4.48942974368837      5.39287527110691      0.08911695741205
  C   3.33827362815815      6.17197472099908      1.72587649953993
  H   3.00045475922100      7.05512880808888      1.19462188179038
  C   2.32256997367395      9.78465641032557      2.55887713725544
  H   2.97405671354836      9.96960763188510      3.40672088862284
  C   2.16338587423579     10.71491694516670      1.53076937028135
  H   2.71524060662215     11.65121811571334      1.56882593777178
  C   1.28762100535702     10.42383771359461      0.47525673343148
  H   1.14183578036225     11.13428997372447     -0.33605016145054
  C   0.58556533275008      9.20973583276678      0.48564910165130
  H   -0.11513616032117      8.96093137463629     -0.30895499464772
  C   0.78876885193428      8.31535108322339      1.53819434153756
  C   0.12100839118526      6.97209964509941      1.64679243005039
  H   -0.91501952279599      6.99395050086745      1.28662477205378
  H   0.65975284316553      6.21687984598522      1.06044330985810
  C   -1.07319303525671      6.93863995844750      3.89070962088816
  H   -1.14278798585392      6.26945968746188      4.75752571829863
  H   -1.97919638755378      6.80139855056441      3.28765677167139
  C   -0.88062719254907      8.38220042144543      4.32736633365258
  H   -0.88744903643903      9.07169034682697      3.47832351794699
  H   -1.65780634932152      8.69514487406389      5.03428843990805
  C   4.71628821703854      8.07356175514637      4.38330649292722
  H   5.26642241028285      8.88675887648898      4.86502050730965
  H   5.12340030635411      7.09934450837182      4.66488394047901
  H   4.70819335832148      8.19967601506420      3.30110242276747
  H   3.28928666072199      8.25449688078527      5.79873841109086
