42
Coordinates from ORCA-job BOPWEI-oxo_3_1_tpss_d4_lanl2dz_631gpol_Mn3.opt
  Mn  -0.00472334327615      0.01381113165368      3.42354734666422
  O   1.42999247041862      0.95497779243349      2.33761648120060
  N   3.39650097056226      1.51123647538752      1.34486643232212
  N   2.76509133770401     -0.72617048005301      1.51679919684133
  C   2.51818549856636      0.57301048271457      1.73167882308784
  H   3.24499650256464      2.48463503515147      1.58637734599060
  H   4.23566483779212      1.29405366723208      0.81253637833082
  H   2.00093258626795     -1.38076761454388      1.67815821054927
  H   3.57772265114570     -1.04066547923778      0.99254521755981
  O   -1.33620422603250      0.77131803532633      2.22702365803376
  O   0.13826190904568     -1.49783659857086      2.19704722096790
  O   0.07077227045214      1.64936809362706      4.43579158122590
  O   1.43500592739239     -0.83638989306410      4.31718030425547
  O   -1.11169182865212     -0.71720296397002      4.29036095999029
  C   -1.50405211347358      1.96761951603595      1.72612106810411
  C   -0.82493032420562     -2.35984655607547      2.01499537204780
  C   -0.83137538934339      2.22723678318696      5.19520119852250
  C   2.38561522408703     -0.41966254262312      5.10989960743074
  N   -2.72172344042534      2.27474281252077      1.26241135284709
  N   -0.50214430275033      2.85677278260372      1.69564192160378
  N   -0.50957094619028     -3.62164052427190      1.71489124294391
  N   -2.10998826109451     -1.97719153657548      2.14239099608829
  N   -0.56451381701982      3.47633541806900      5.59750496702913
  N   -1.96898002007649      1.61982737033331      5.54961592884479
  N   3.10625024293873     -1.36997640717910      5.71413780232920
  N   2.66977738671577      0.88290233135512      5.26073421587362
  H   -3.48653977149414      1.61337525613523      1.35279874368551
  H   -2.90476074649737      3.11876745035864      0.72408423005911
  H   0.43615788478947      2.49070161194961      1.86987284525929
  H   -0.60448435693129      3.74932813394612      1.21895575486622
  H   0.45604537615692     -3.93319415310453      1.76840063432103
  H   -1.19450850736246     -4.29162624664904      1.36972053898386
  H   -2.31744185505577     -0.98122457022654      2.07216976908349
  H   -2.87922606925804     -2.64390446603147      2.10439026643795
  H   0.26642539310898      3.95230678208058      5.26135301804685
  H   -1.16426369497135      3.98637108893392      6.24263556081140
  H   -2.09333228496259      0.62981290007606      5.34723703790547
  H   -2.61754520338493      2.04520286184179      6.20907584975867
  H   2.85231055649995     -2.34580109272124      5.58545020407866
  H   3.87450816527502     -1.16336453282166      6.34875088418625
  H   1.98856218018353      1.55312558675768      4.91006009724942
  H   3.35132113079078      1.19942625800849      5.94616973458161
