43
Coordinates from ORCA-job BOPWEI-OH_3_2_tpss_d4_lanl2dz_631gpol_Mn3.opt
  Mn  0.00596296167761      0.04140798339875      3.44489350262708
  O   1.44304342658119      0.88706604971947      2.38278579358519
  N   3.42228292939643      1.29310314218110      1.35710760427585
  N   2.85817513455574     -0.88658181652424      1.95707730714193
  C   2.55890925210601      0.41994002647996      1.89488687653604
  H   3.22653968036362      2.28825768271289      1.38602532196416
  H   4.27366525266924      1.00348236013351      0.88158788178954
  H   2.11022349890315     -1.53676574389420      2.19142150778405
  H   3.72240666235718     -1.25736446968610      1.57034259602815
  O   -1.41294277098442      0.70181619817528      2.39204920235012
  O   0.11517539183083     -1.45713852960254      2.27377516598162
  O   0.11722528630541      1.69733166725302      4.42017519400007
  O   1.27065386858136     -0.84245010822812      4.56538973655572
  O   -1.27800467321882     -0.67799948332212      4.49845119364079
  C   -1.60759784573277      1.83345517409715      1.77001751384463
  C   -0.84202679211604     -2.22246332277360      1.79259838131585
  C   -0.80991687289254      2.35899954400944      5.07901592540072
  C   2.33981208148454     -0.45333314286379      5.20775502299899
  N   -2.84549235498495      2.06972718721641      1.32333148202230
  N   -0.61509361620698      2.72205818088631      1.61246687030385
  N   -0.55071656504086     -2.93183400309456      0.69527629630453
  N   -2.03623035297885     -2.28867005743817      2.38080687606186
  N   -0.48581011993787      3.58541893537291      5.50843382707511
  N   -2.02198220952738      1.83919303759108      5.28663808614113
  N   3.05002478785514     -1.40244182237199      5.82530523123034
  N   2.72528050058226      0.83258888075580      5.21037712311277
  H   -3.57420378495206      1.38122173264019      1.48911499305197
  H   -3.08120222502563      2.87226476981023      0.74407540987923
  H   0.33326841558150      2.40036645744162      1.80972640012593
  H   -0.73766577546486      3.56115853844686      1.05058581739951
  H   0.35219098964735     -2.82500960447828      0.24459727210319
  H   -1.18747397065194     -3.62222538281842      0.30326504701881
  H   -2.16074785019643     -1.78125627180483      3.26172194969215
  H   -2.76329699600411     -2.92478468533475      2.06206090200219
  H   0.41280320963870      3.99035028546864      5.26694976363342
  H   -1.10484720174970      4.14249798203073      6.09332309507821
  H   -2.14589923815870      0.83987156053817      5.08938336510049
  H   -2.71980724487757      2.31953647393224      5.85065480776704
  H   2.73053895193592     -2.36695926822005      5.79028300464225
  H   3.85457792873091     -1.19749224232641      6.41355581912919
  H   2.04393926438301      1.52118950717866      4.89347408299818
  H   3.49781109554240      1.15110803013970      5.79069185618873
  H   -0.84685211000705     -1.21851143282799      5.20189489411688
