41
Coordinates from ORCA-job BOPWEI_3_5_tpss_d4_lanl2dz_631gpol_Mn3.opt
  Mn  0.18373986135330      0.22841141215832      3.31270994506976
  O   1.77599143634972      1.11873008820212      2.29378280965388
  N   3.51648648976126      1.65228851928343      0.93030010676479
  N   2.47621115212495     -0.42436415950260      0.73685479447422
  C   2.58113342281268      0.77436376432789      1.32422157902478
  H   3.58685860115493      2.55395311768325      1.39114831216120
  H   4.18158864320745      1.45746016282738      0.18547163312582
  H   1.75045575513034     -1.06113799059595      1.06170063336769
  H   3.08383494243902     -0.71919197907152     -0.02330991411760
  O   -1.38026376838871      0.84100292856197      2.32521073220837
  O   0.21245599716366     -1.41533841059511      2.29589283864760
  O   0.10571563427976      1.79816013944996      4.39475440426644
  O   1.08156737141651     -0.69826801076186      4.68840685046477
  C   -1.52442776794359      1.96050809386210      1.65133091708250
  C   -0.68251101067241     -2.36263877909038      2.18019065554960
  C   -0.74431158919245      2.09179922992031      5.33925135114091
  C   2.12293664640358     -0.36793569986497      5.40612807007625
  N   -2.75130945636196      2.26565239476385      1.21090864697355
  N   -0.48544149809502      2.77045136980162      1.42961141602054
  N   -0.25591258946855     -3.62271521647949      2.07328610210766
  N   -1.98962552229397     -2.05556165677194      2.17299447318098
  N   -0.32838014000812      2.88832294178589      6.32648879566660
  N   -1.99416933244805      1.59218964392032      5.32227273784329
  N   2.35717398365041     -1.08929799957199      6.50612470684634
  N   2.91093097025351      0.65910958801149      5.05139525434876
  H   -3.52386285232495      1.62419422558817      1.35997122734603
  H   -2.93598298798251      3.07566850600978      0.62328083436556
  H   0.44694703358888      2.48896662499291      1.74249433478159
  H   -0.58079670935910      3.63675873792477      0.90508494052828
  H   0.72688023082545     -3.83571514981955      2.21964061574609
  H   -0.87533205514225     -4.40000379069285      1.85227644156636
  H   -2.24153396041842     -1.08448948675925      2.00384061548710
  H   -2.71253497308665     -2.76476322597009      2.07203644341157
  H   0.63835135982426      3.20129071475480      6.33667193013285
  H   -0.95990545983569      3.29302424248344      7.01459156080652
  H   -2.35477729446091      1.21231806613178      4.45222818663517
  H   -2.67074145615329      1.79866447855573      6.05445334899177
  H   1.73191168927940     -1.85659349290947      6.73805742951282
  H   3.18924840480269     -0.97162251836226      7.07939051441962
  H   2.75071822243437      1.10462909135842      4.14731242052704
  H   3.77738257538042      0.86461948445954      5.54284130379263
