68
Coordinates from ORCA-job ABEDAO-CH3OH_0_2_tpss_d4_lanl2dz_631gpol_Co2.opt
  Co  1.64766701559959      2.23693297780071     16.06175943535016
  P   -0.63115721692100      2.82000590397104     13.83625056540903
  O   0.24734232061093      1.91454289138541     14.71977139353428
  O   1.50166250666276      0.15131154662849     16.69855056253478
  O   3.05830219789218      1.90513779290679     14.81474540243970
  O   2.52890804511314      4.01991182099848     14.95043240485317
  O   4.16420391393588      3.38373988878931     13.58154756454261
  O   0.50805564447356      2.72274519812774     17.57326892127726
  O   2.66499370109292      2.70703196644208     17.73673782776908
  O   1.45071065181659      3.31766754592097     19.51511062554541
  N   3.29339826472205      3.14254475397238     14.41108455869538
  N   1.54897586140372      2.94354662713749     18.36016515772743
  C   0.36858032640138      3.73340841085049     12.59608328346268
  H   1.13859525288190      4.19379003844494     13.23881135702234
  C   1.10339054873784      2.79232756620934     11.60885683897578
  H   1.60883552379306      1.98751230453447     12.15891038480594
  H   0.36841312380258      2.32392163337213     10.93417761320929
  C   2.11704097517526      3.59366583878324     10.77090768335988
  H   2.90020596265542      3.98323798803566     11.43749037125788
  H   2.61194662683746      2.92320685194243     10.05351329728212
  C   1.43336977555888      4.75752286074809     10.03146668972675
  H   0.72007686143646      4.35353604578956      9.29288744981818
  H   2.17767840855979      5.33909517573951      9.46871914727078
  C   0.67769752254890      5.67401040015455     11.01044350372223
  H   1.39757163910147      6.15095810355667     11.69462519998884
  H   0.16684057721993      6.48105132961357     10.46496946671739
  C   -0.34861733022695      4.87938436197974     11.84144312944885
  H   -1.11771969263932      4.47067445672926     11.17015487337014
  H   -0.85933794153926      5.55232056022499     12.54431548055711
  C   -1.88782343972074      1.71300492827395     13.07156172885789
  H   -2.56247882998933      1.48777433331688     13.91667004701375
  C   -2.74244818998063      2.33948654652660     11.94618246512496
  H   -3.16931297430125      3.30299654305339     12.26169774398678
  H   -2.10391652124903      2.53820233801045     11.07212754734456
  C   -3.86569168373460      1.36775179897027     11.53458712671564
  H   -4.54449583961233      1.22140864049253     12.39069606334223
  H   -4.46210955876873      1.81081343956116     10.72395221862945
  C   -3.29006778241433      0.00815363434994     11.09779826224715
  H   -2.68543049366833      0.15052722124606     10.18676467096880
  H   -4.10484357102513     -0.68167462113213     10.83481597243483
  C   -2.40495328783630     -0.60321663809932     12.19958491830730
  H   -1.96984023190770     -1.55284439022903     11.85608275351218
  H   -3.02654923773518     -0.83665471142343     13.07989494885093
  C   -1.28032659285325      0.36116240212457     12.61913194222779
  H   -0.67800461172132     -0.06302738017438     13.43154571195491
  H   -0.60661955390303      0.52614983188652     11.76542024470411
  C   -1.54451218932255      4.08492540073072     14.81737513134858
  H   -2.23065098056967      4.60463588577947     14.12493934801371
  C   -0.55162686522758      5.12036962418667     15.40877456926945
  H   0.19245391449908      4.58802706828802     16.01639445938580
  H   -0.00142301085662      5.63014557070712     14.60735020188019
  C   -1.27497462408045      6.15245405171773     16.29108852926548
  H   -0.53673575768296      6.85086231920400     16.71018049933788
  H   -1.96554270851992      6.74748759422337     15.66957228698286
  C   -2.06386103691797      5.46155285372738     17.41510831885131
  H   -2.58302928038042      6.20812125629929     18.03345054015607
  H   -1.36397622999312      4.92253986014738     18.07198212626921
  C   -3.07583402070590      4.46608632282043     16.82405334735645
  H   -3.81938977505005      5.01507124530386     16.22188717052590
  H   -3.62850820799760      3.95530255404873     17.62596830590538
  C   -2.37933566663213      3.41531767368878     15.93916943422724
  H   -3.13469491896507      2.74478720213788     15.50418630142387
  H   -1.71050918450695      2.80295076303827     16.55816906014620
  C   2.76208157297465     -0.42384335969906     17.12860920750452
  H   3.42549175850714     -0.34507990850677     16.26470929685935
  H   3.18742684820509      0.13689704955988     17.97023975466755
  H   2.61937411109284     -1.47895651426021     17.39673662854409
  H   0.88281758584430      0.15707872931302     17.45687092617902
