64
Coordinates from ORCA-job ABEDAO-OH_0_1_tpss_d4_lanl2dz_631gpol_Co2.opt
  Co  1.69269274386360      1.96000083373746     16.02505818823678
  P   -0.59173960615411      2.63420994374554     13.87397471420257
  O   0.33044041562013      1.70231962509276     14.70139250053215
  O   1.37509972105878      0.28297569578798     16.62753771918837
  O   3.08643071481574      1.59514239525374     14.71351040591777
  O   2.43902713691926      3.61845513680195     15.13958495926083
  O   4.05074670399616      3.28948099748111     13.63109025153096
  O   0.69167891150637      2.71727476351845     17.50245430254395
  O   2.79000741023271      2.24423155766929     17.57602132825356
  O   1.80331225322183      3.04381878452847     19.41468256410738
  N   3.25051403656574      2.86353192022270     14.44363721460235
  N   1.76830292446720      2.68993292674366     18.25811831201709
  C   0.36848769805025      3.58053217771169     12.62719210986049
  H   1.13911061478325      4.05871801421334     13.25576400511531
  C   1.09999118103737      2.66446234599815     11.61341742733876
  H   1.62992862858369      1.85822149446822     12.13733587831099
  H   0.35752520005656      2.19432057749835     10.94890467346297
  C   2.07816156582673      3.49631069775051     10.76309474256191
  H   2.86590914784449      3.89890993317030     11.41662311940077
  H   2.57339062894289      2.84333050955754     10.03050746801038
  C   1.35347089463730      4.65068889476409     10.04815530031402
  H   0.63738865196905      4.23642030416110      9.31848609185959
  H   2.07326553995607      5.25535022180729      9.47842682738933
  C   0.59345721823663      5.53956613066986     11.04898127706281
  H   1.31304554257238      6.03239915722332     11.72227509617319
  H   0.04918118280321      6.33549020187961     10.52047737583847
  C   -0.39486045236877      4.71180228749274     11.89403229142853
  H   -1.16184961551061      4.28240859819513     11.23441007038215
  H   -0.91404085657713      5.36426825816180     12.60952118144625
  C   -1.84306806089587      1.51012525995122     13.12804498860769
  H   -2.48141686228680      1.25215691292068     13.99153660433114
  C   -2.75065430085019      2.15149998169726     12.05223104465084
  H   -3.17962200564256      3.09982358387088     12.40792423703790
  H   -2.15038311619853      2.38124991594519     11.15899813753633
  C   -3.87415262251002      1.17143973713173     11.66190175438698
  H   -4.51402474276829      0.99158737876952     12.54104946682154
  H   -4.50996653095554      1.62683611276520     10.88927425896496
  C   -3.29501195918196     -0.16536947703313     11.16502832821023
  H   -2.73182421092199      0.01050733599665     10.23359122349387
  H   -4.10851722050741     -0.86225723275673     10.91856607238597
  C   -2.35544520062511     -0.78990400830534     12.21246949887471
  H   -1.91534290163266     -1.71968671432871     11.82498035863212
  H   -2.93469751176933     -1.06160534802074     13.11025203661113
  C   -1.23086969268520      0.18287240625848     12.61387964542923
  H   -0.58981365524778     -0.25746838858770     13.38682449993661
  H   -0.59469076326379      0.38304858433363     11.73958076742411
  C   -1.50165096010048      3.85580273147788     14.90451098396457
  H   -2.23862641214484      4.33663515066027     14.23563506835672
  C   -0.54921128698462      4.95123864658120     15.45351811894551
  H   0.24055716370289      4.47505334665991     16.04692190641144
  H   -0.05732723973536      5.48361680897137     14.62876987158647
  C   -1.31068567726363      5.95114777196750     16.34188450774607
  H   -0.60413417465067      6.69710028572213     16.73250457538001
  H   -2.04905626766603      6.49682657339666     15.73013017460963
  C   -2.02990418977491      5.23241141583950     17.49501764293020
  H   -2.57590117491385      5.95762298129556     18.11517954645142
  H   -1.28424634816910      4.74505278483612     18.14109497437510
  C   -2.99701234464409      4.17090974389090     16.94603007680601
  H   -3.78822512562397      4.66506391282543     16.35739581206437
  H   -3.49463977325955      3.63932322994452     17.76949367763870
  C   -2.26540783569762      3.14875206647672     16.05560464529725
  H   -2.99433873039868      2.43376700675497     15.64749630869206
  H   -1.55042852205455      2.57764416671031     16.66209379853359
  H   0.64749412036542     -0.01383904992559     16.03774799052362
