29
Coordinates from ORCA-job RUHCON-oxo_2_3_tpss_d4_lanl2dz_631gpol_Co3.opt
  Co  2.33287868087999      7.61050741243454      1.72508393325981
  N   2.30222611511574      5.71306499085925      1.46156937033379
  N   3.27829796551614      5.02234755328164      1.15438311125481
  N   4.15348412519102      4.31412595800738      0.87508487452348
  N   2.42849495999327      7.33861755912424      3.70358353535503
  H   1.70946753489272      7.88193265524756      4.19815044702216
  H   2.25592372887645      6.34033108077290      3.88690229381918
  N   4.33393324916576      7.67492813196514      1.80254906574097
  H   4.80696433050083      7.13605892824181      1.06447498012016
  H   4.59689120161278      8.66054657408026      1.66462623854409
  N   2.21832628792398      7.88984362981225     -0.25708138655033
  H   2.35962418480564      8.89918870215745     -0.40551172014321
  H   2.93965783014006      7.39365270549806     -0.79563796675835
  N   0.34563559273290      7.47846961134776      1.65565512267292
  H   0.13832009414139      6.47423110102883      1.75785503897027
  H   -0.11982079844745      7.98483914453200      2.41932065878883
  O   2.26879264239337      9.27495476787115      1.96669136333647
  C   3.79671340329334      7.75701290468845      4.17262251344302
  H   3.98263842140457      7.37447255723862      5.18345436769519
  H   3.80860512308203      8.85187505360800      4.19566488783373
  C   4.79190626626335      7.20621340118354      3.16431777980996
  H   5.81103484192351      7.56186633949715      3.35653999355341
  H   4.79996542266143      6.11099079040671      3.15367579074766
  C   0.84444840920387      7.47526737875801     -0.71844455822517
  H   0.83367216106972      6.38202732544580     -0.77343596349350
  H   0.64323122220299      7.88842585101516     -1.71408684378206
  C   -0.13312012105076      7.99451219958072      0.32332665984256
  H   -0.12992133770837      9.08837642188810      0.37653117524879
  H   -1.15617153778033      7.64661927042733      0.13603523703629
