30
Coordinates from ORCA-job RUHCON-OH_2_6_tpss_d4_lanl2dz_631gpol_Co3.opt
  Co  2.33893458542926      7.85108832536028      1.74477002477741
  N   2.44963583205610      5.67564049210011      1.59433904491995
  N   3.11099629470547      4.93505373676851      0.89142903080421
  N   3.73374204237808      4.18879404340561      0.23247391840513
  N   2.49586953658815      7.38520957053745      3.86505527330766
  H   1.80182520533833      7.93542677643793      4.38355722332869
  H   2.30406914916794      6.39880426357559      4.07603207809935
  N   4.51408811134626      7.74999453829137      1.92199462781516
  H   5.02590204386584      7.24413745944433      1.19069560479068
  H   4.80747940071689      8.73141602489127      1.83879718387936
  N   2.17056267414696      7.79975236527419     -0.43365794122846
  H   2.27612187884162      8.78165948491720     -0.71734539265429
  H   2.89189364134231      7.28509702643919     -0.95104974434510
  N   0.20676331832506      7.42972769935113      1.57379916648618
  H   -0.02759071700108      6.44508998843079      1.74634891983405
  H   -0.30264890141190      7.97839330805433      2.27564349702536
  O   2.20582102880930      9.59409941702403      1.91239536088431
  C   3.87716056380185      7.76068618142794      4.30082756617424
  H   4.10037749253052      7.35914814244077      5.29716147282642
  H   3.91760333101798      8.85488049434471      4.34790486821011
  C   4.88203797762229      7.22657524945887      3.27797809320142
  H   5.90107882068611      7.52588794159236      3.55159570135131
  H   4.84436902661711      6.13141772162030      3.23508960804332
  C   0.80549451917682      7.30897319295523     -0.81435276553590
  H   0.82770473375036      6.21267632445346     -0.79871292601917
  H   0.53955699701025      7.63229104913698     -1.82806751437457
  C   -0.21263071895786      7.84040846023754      0.19699400984754
  H   -0.24013944969490      8.93586388481106      0.17853549888187
  H   -1.21483377436946      7.46173269787561     -0.03941278904368
  H   2.07524535616426     10.56693413934160      1.91474130030739
