30
Coordinates from ORCA-job RUHCON-OH_2_4_tpss_d4_lanl2dz_631gpol_Co3.opt
  Co  2.34074585069323      7.57243779002811      1.73271965066890
  N   2.36823405395091      5.75368078861921      1.50240133410958
  N   3.23761423246459      5.02858469144678      1.00922281015780
  N   3.98786011182156      4.26231047202079      0.57177445870932
  N   2.50781654880761      7.35255435219832      3.85223180615200
  H   1.80088320935308      7.95180688908317      4.29220449595411
  H   2.32319294688319      6.38595568498412      4.14497412711995
  N   4.50985955429566      7.64354634585426      1.88633759743047
  H   5.05846715434847      7.13410767172203      1.18368414239956
  H   4.73156469539760      8.63918567970240      1.76389895970527
  N   2.15350593279630      7.89384891715593     -0.38530494173855
  H   2.31092747673294      8.87817650718308     -0.63601762506254
  H   2.86337694145039      7.36790859717774     -0.90837927105016
  N   0.18143663362756      7.45276738717680      1.57558268035713
  H   -0.08218398851132      6.46677218026059      1.69333084057784
  H   -0.28958311427529      7.98069273183055      2.31858608837753
  O   2.30045601848632      9.28822989433733      2.09920988163640
  C   3.87761868298179      7.78915391305485      4.25485627506159
  H   4.10675567990022      7.45762845998805      5.27543547849523
  H   3.89090553490079      8.88406203852555      4.23114835931321
  C   4.89105547082306      7.20813736480875      3.26664125831083
  H   5.90337949928095      7.55028762411142      3.51537506765822
  H   4.88381465455994      6.11190493679781      3.28972860602117
  C   0.77998653856687      7.46282699512826     -0.80759993246938
  H   0.78056832633078      6.36853072773751     -0.86252707641782
  H   0.53672782910747      7.86135599096550     -1.79996044300412
  C   -0.23297582378819      7.95191859896236      0.23096983073380
  H   -0.25831791870672      9.04793058376147      0.27261810731366
  H   -1.23966037791673      7.60178942717826     -0.02912613066599
  H   1.88245764563690      9.87876675819873      1.43154356414493
