28
Coordinates from ORCA-job RUHCON_2_5_tpss_d4_lanl2dz_631gpol_Co3.opt
  Co  2.46660998908898      7.04686551430471      1.62364349239819
  N   2.78169885332907      5.30887494477778      1.24718523357217
  N   2.94752971378979      4.11628476207277      1.06009603569698
  N   3.11049523784102      2.98140438509281      0.87625940567178
  N   2.54085654627395      7.17484005203755      3.77216358591776
  H   1.70818171779320      7.57157042679611      4.22286319213042
  H   2.59449433305689      6.20615200151476      4.11367654469209
  N   4.42419953217516      7.88415447970342      1.86299638709916
  H   5.07723484370675      7.48136280781608      1.18009284470807
  H   4.44822089441219      8.89975382638541      1.70043175945969
  N   2.25031261268675      7.94032460422919     -0.31682591878815
  H   2.46448652883300      8.94646195415549     -0.32051676268671
  H   2.90786556759175      7.51743780456589     -0.98304156475024
  N   0.32549690198049      7.25816467765666      1.56020886971991
  H   -0.05070703655483      6.30522976373708      1.46887053587070
  H   -0.11086333121740      7.63795065678233      2.40834451408420
  C   3.76337947194136      7.92996604582505      4.21775776722418
  H   4.03024181456843      7.67264421032867      5.24968067486945
  H   3.52202053424736      8.99922658049735      4.18170437233624
  C   4.90216238944437      7.59597963892340      3.25830936696656
  H   5.79984261509583      8.17848119877386      3.49781377978821
  H   5.15811245779059      6.53093689977189      3.30385307009272
  C   0.83925695797406      7.73358361029170     -0.78977022386693
  H   0.74061983024722      6.68059311094917     -1.07860417222768
  H   0.62044448962589      8.35558947038287     -1.66591425028090
  C   -0.09331278423916      8.07541493227326      0.36877547963294
  H   -0.00284272515302      9.13269961822686      0.64593904273905
  H   -1.13883795632981      7.87775202212741      0.10420693793005
