29
Coordinates from ORCA-job RUHCON-oxo_2_1_tpss_d4_lanl2dz_631gpol_Co3.opt
  Co  2.33443439872258      7.57628411980195      1.71274634587868
  N   2.30865741370083      5.68377541661161      1.40507464380196
  N   3.27748159171676      4.94429746518256      1.22218640952426
  N   4.13947053243706      4.18567080343413      1.04906400484638
  N   2.43560425553950      7.31482030947811      3.69258317068781
  H   1.70977953113114      7.86460307076357      4.16953465265816
  H   2.27545786018469      6.32278429609988      3.91505554713841
  N   4.33176616321061      7.67532007644626      1.78735792624063
  H   4.81388455692286      7.14171144636959      1.05175551995022
  H   4.57652970319344      8.66472658714133      1.64272549547120
  N   2.21590563726880      7.91025004127497     -0.25626670302356
  H   2.35544889647297      8.92591229766741     -0.35762417134650
  H   2.93598704630996      7.43664742544296     -0.81634768974521
  N   0.34988019530029      7.45307053844387      1.64451495291076
  H   0.13105721419670      6.44917510390596      1.72141535408130
  H   -0.10982668765930      7.94211450234527      2.42269685894250
  O   2.25473344430936      9.24489891537037      1.98034248473985
  C   3.79516729432090      7.76789120788040      4.15573874456177
  H   3.99116987178172      7.40438121424452      5.17155503675712
  H   3.78267480493847      8.86302662328158      4.16189110529269
  C   4.80147988949859      7.22799858869476      3.15231263495089
  H   5.81306268729343      7.60662551263364      3.34060678544201
  H   4.83288026942218      6.13294959035180      3.15248677283570
  C   0.84097364062379      7.51744525432882     -0.73057581461541
  H   0.82300524699125      6.42651708956463     -0.82275691850816
  H   0.64010982434815      7.96489545037454     -1.71143476668563
  C   -0.13272059756434      8.00821117910741      0.32902930947184
  H   -0.12459169833899      9.10016979105101      0.41332088725079
  H   -1.15736298627346      7.66912608270692      0.13491142048951
