118
QM: 25 atoms, MM: 93 atoms
H    -2.523300    7.770400    9.794800
N    -1.831500    4.732800    5.713400
N    -4.194000    7.728900   10.848100
N    -1.984100    7.539700    6.759400
Cl   -4.816600    6.055800    5.778300
Co   -2.860800    5.657600    7.324800
O    -3.553500    4.170800    7.771500
H    -3.198400    3.544800    4.854900
C    -2.454700    8.474000    5.881800
H     0.015800    5.509500    5.662100
C    -3.384500    7.425800    9.856300
N    -5.301700    7.003400   10.543400
H    -3.348200    8.508100    5.625500
C    -2.337200    3.889300    4.793400
N    -1.527600    3.586300    3.801600
H    -0.087400    7.406300    7.361500
Cl   -0.905100    5.259400    8.871400
N    -3.890200    6.582400    8.936300
N    -1.569400    9.317300    5.429200
C    -0.708800    7.855300    6.834100
H    -5.737400    5.805600    8.987600
N    -0.417800    8.902900    6.054700
C    -5.106400    6.350300    9.402100
N    -0.420000    4.311700    4.106300
C    -0.615200    4.964900    5.247500
H     2.818500    9.481700    6.188000
C    -7.999900    9.191700   13.795600
C     0.758600    4.284200    3.274200
C   -10.494600    8.370500   12.932700
H     1.488800    8.159500    2.058300
H    -1.449600    6.217100    2.632500
C    -4.872000    4.372800   12.200200
Cl  -11.777000    9.410200   15.043700
C     4.465200   11.753100    2.865500
C     3.405000    1.845400    0.096700
C     3.639500    3.216100    2.452400
H     0.942700    5.072700    0.342800
H    -0.645700    7.403600    3.265400
H    -0.011000   10.243000    8.370800
Cl    5.909800   12.438400    2.175000
H    -0.282400    5.972800   -0.038100
C     0.944800   10.098700    4.535500
H     5.609000    3.233500    2.004100
H    -7.902100    5.106500   10.243000
H    -7.210400    3.155700   12.591400
C     0.130400    5.468500    0.666600
H     3.341800   10.795000    9.337700
C     3.264600    9.887100    3.675600
C     3.387600   12.585600    3.086700
C     1.313200    5.628500    2.864000
C    -6.480300    7.031000   11.375500
H    -4.458700    3.763300   12.817000
C     0.822200   10.082200    8.820600
H     3.326200    1.395100   -0.713400
C    -9.126700    9.469700   14.553000
C    -9.361200    8.099100   12.197300
H    -7.164400    9.481700   14.084200
H    -6.519100    3.266000   13.994800
H    -9.448200    7.637600   11.394500
H     5.165000    9.881400    2.940200
C     1.288900    7.570300    1.327300
C     0.446000    6.393600    1.834100
H     2.107200    7.238400    0.949300
H    -1.262900    7.551900    1.832700
C     2.391400    2.834300    2.046600
H    -6.393400    8.951000   11.522000
C    -5.852000    5.846600   13.983100
O    -7.245900    4.846100   10.659500
C     0.858700    9.463000    5.692900
H    -6.664300    6.242400   14.306900
H     0.898200   10.671400    9.575000
H    -5.076000    3.911500   11.384200
C    -7.034800    5.686700   11.785600
H    -5.252900    6.538600   13.690100
C     4.431300   10.423800    3.124800
C     2.244900   12.026700    3.640400
H   -11.330600    8.081600   12.645600
H    -7.828800    4.076700   13.700400
H     0.671700    2.364200    3.127700
H     2.629700   11.912100    6.696400
O     2.067600    7.999600    7.217900
C    -7.010600    3.744800   13.322400
C    -6.167700    4.921600   12.815500
H     0.161200   10.186800    4.041800
C     3.308700   10.173500    8.608100
C     4.638100    2.238600    0.552300
C    -8.113000    8.480900   12.603100
H     1.442800    1.833500    0.565500
H     3.375300    9.278000    8.946500
H     0.851600    9.171400    9.122300
H     0.797400    8.049200    0.654800
C     1.988000    9.328700    6.686100
H     3.726600    3.677500    3.255200
Cl    6.055300    1.905000   -0.394100
H     3.223700    8.976200    3.858700
H    -4.272000    5.098100   12.017100
C     1.179100    3.101200    2.871300
H     1.974900   12.388700    8.039700
H     1.508000   12.570100    3.803100
H     3.425600   13.489700    2.871300
O     1.524200    6.469000    3.990100
C     2.278200    2.123500    0.854100
H     2.500000    7.526000    6.706600
C     4.772900    2.944700    1.716900
H    -7.908800    5.844400   12.200200
C     1.907200   11.765700    7.311600
H    -5.439200    5.342400   14.687700
C     1.981500   10.337500    7.853700
C    -0.849700    6.942300    2.449400
H    -0.468700    4.776600    0.959600
C     2.174200   10.682300    3.955400
H     2.180400    6.208700    4.406600
C   -10.359800    9.076600   14.097400
H     4.039700   10.344000    8.009000
H     2.187100    5.470800    2.449400
H     1.070800   11.893200    6.859000
C    -6.900800    8.214000   11.778300
H    -9.047900    9.920100   15.363100
