43
Coordinates from ORCA-job CTAZCO10-OH_2_6_tpss_d4_lanl2dz_631gpol_Co3.opt
  Co  0.70756155987190      0.67494248394170      3.38271885087146
  N   1.11848072733497      1.84589241923651      1.62400528311733
  C   0.36076412602813      2.70913047524171      1.06874627878873
  C   0.70089921768987      3.70390270209022     -0.00705736471881
  C   -1.14857840830866      2.72146722068578      1.44733253015087
  O   -1.94714748270328      2.94533701666820      0.56218490962893
  C   -1.70352868831016      2.56522991340058      2.89323624890399
  C   -2.88600913848321      3.45471579091592      3.16333582303679
  N   -1.17916688219496      1.68563100626688      3.65396448638511
  C   -1.70479716130600      1.19326733501069      4.94014864144655
  C   -1.45569804810165     -0.32649674131209      5.04489453760636
  N   -0.00450075957568     -0.63411496347712      4.88408604820651
  C   0.31018906700390     -2.08575823498488      4.68778540608807
  C   1.79800087883830     -2.32751415672441      4.38182861287366
  C   2.25901393893800     -1.94862737193342      2.96442673177782
  N   2.38006988328640     -0.46683452603192      2.78246979828537
  C   2.69387779814431     -0.03155797973474      1.38938504071703
  C   2.49644413391651      1.49178586361666      1.23608287766407
  Cl  -0.61486008848684     -0.51339476951481      1.80052331900197
  O   1.60779974772682      1.75119714910523      4.48237617821978
  H   -1.99103789914206     -0.84759565965431      4.24245704469785
  H   -1.83102326479607     -0.68260483408474      6.01370836738966
  H   -3.65132119653951      3.25822928988539      2.39760883386442
  H   -3.29373377391831      3.29891058508004      4.16495299308568
  H   -2.59357430071403      4.50937590687142      3.05897767299345
  H   -2.77582336059707      1.39832993209941      5.04692670518313
  H   -1.15219378336707      1.72562507433593      5.72843920376450
  H   3.16346643622197      2.03420522002664      1.92235970519728
  H   2.71688040521926      1.78915769658653      0.20492737851460
  H   -0.32037236569755     -2.44777148303115      3.86840287570399
  H   0.03136377575614     -2.62656878009577      5.60391952873561
  H   1.97394002377177     -3.40526593881472      4.49535779147394
  H   2.43319718796813     -1.84009619993934      5.13858341269386
  H   1.55048277375647     -2.31220897041975      2.21229077826072
  H   3.24034315178726     -2.40278696758118      2.76379809354289
  H   0.05421599143593      3.51078820474742     -0.87599962503408
  H   0.47466557340929      4.72263796931585      0.33884727105624
  H   1.75446247238360      3.65330029448223     -0.29191904390940
  H   0.50435418576331     -0.30070712908318      5.71391294742858
  H   3.11190686472365     -0.11972535290903      3.41710731756411
  H   2.00866165220593     -0.56411204289768      0.71939609980063
  H   3.72735522774390     -0.28632490486673      1.11897189295894
  H   1.76585980131639      2.68202745747997      4.74652851698147
