42
Coordinates from ORCA-job CTAZCO10-oxo_2_5_tpss_d4_lanl2dz_631gpol_Co3.opt
  Co  0.56972942127204      0.60767695579055      3.25723684743504
  N   1.05642935431504      1.82076264369383      1.70566571107201
  C   0.29843450869764      2.66107447923521      1.10045413221977
  C   0.66800949866122      3.62046176848866      0.00196324421032
  C   -1.20518032580585      2.69732975591131      1.43952991874295
  O   -1.99692308448509      2.91663290568297      0.54679793663726
  C   -1.76384241235537      2.58683541586088      2.88849921507762
  C   -2.85771640426866      3.57458308839274      3.19557269890545
  N   -1.30371655822660      1.66090116586269      3.62256778157848
  C   -1.75802331362899      1.18074956737601      4.93241540605649
  C   -1.47099521932115     -0.32951047473112      5.03872731926860
  N   -0.01927029066535     -0.60098859451874      4.80657386032234
  C   0.31185647626610     -2.05776195439525      4.65395361395539
  C   1.80475722214918     -2.30508559103953      4.39545946677471
  C   2.31147056607106     -1.92420869294259      2.99317951231002
  N   2.41602854579161     -0.44951684407433      2.81783816193962
  C   2.74463724835195      0.04793423892468      1.45565017346975
  C   2.47096114114204      1.56367086151097      1.37085811204944
  Cl  -0.65361144485265     -0.59526814111759      1.82226868066851
  O   1.38093530871970      1.55715386747900      4.31675769441971
  H   -2.03490222396587     -0.87709081316019      4.27559168375357
  H   -1.76978311137351     -0.68587615147878      6.03320789958660
  H   -3.61106031905481      3.50994242928183      2.39692025179203
  H   -3.30965970868858      3.38322926178693      4.17235858953600
  H   -2.45094543196591      4.59628599676214      3.18393621199555
  H   -2.82987917646264      1.36607522718797      5.07108957129230
  H   -1.18449379798625      1.74141634595096      5.68566415935934
  H   3.07235987727162      2.10732659866776      2.11388724091867
  H   2.72292515239964      1.92225494162885      0.36836909698505
  H   -0.30536226045566     -2.45169659416680      3.83983491295162
  H   0.01593439889821     -2.56101201065444      5.58630695744913
  H   1.97091119728831     -3.38383723407628      4.51277118699344
  H   2.42013689858028     -1.82044538285584      5.16959122202021
  H   1.64583314202037     -2.30567166636045      2.21186555150180
  H   3.31336052574830     -2.35689900485803      2.84268383284558
  H   0.10452570156234      3.35390339169223     -0.90426849714891
  H   0.36018942009553      4.63776136591430      0.28148974569129
  H   1.73972539314544      3.62413937559887     -0.20611829378095
  H   0.51986716582275     -0.22668208250177      5.59828372055965
  H   3.07330363358556     -0.06113843030093      3.50542420807985
  H   2.11401083002712     -0.49481265593836      0.74318735443775
  H   3.80153245567983     -0.13869932951037      1.21915390606674
