41
Coordinates from ORCA-job CTAZCO10_2_3_tpss_d4_lanl2dz_631gpol_Co3.opt
  Co  0.42316828298569      0.54722352912797      3.08650296739980
  N   1.07034692899160      1.85608744601448      1.79800189593857
  C   0.34038712352459      2.70133671931529      1.14386937038217
  C   0.82046792268635      3.54558354607100     -0.00415482179008
  C   -1.13387092179038      2.84338768614216      1.49351679261402
  O   -1.89964794137285      3.28333414671268      0.65356833340431
  C   -1.66641886247225      2.54905813203423      2.88864857356426
  C   -2.93837553303235      3.25922331422608      3.26161538070531
  N   -1.04952518185230      1.69351024421835      3.63881341104496
  C   -1.57055504002868      1.29876890150542      4.97462458754607
  C   -1.40811535922720     -0.21232485731655      5.08020062425885
  N   0.00985643295329     -0.54810381036629      4.71228648284466
  C   0.23138014427167     -2.03161993781815      4.58890902587431
  C   1.69429878104384     -2.36283478302850      4.29705921394452
  C   2.16903721091121     -1.87789065664058      2.92817969740883
  N   2.18574632935503     -0.37479444136766      2.83865921691236
  C   2.71319773473594      0.10842621050357      1.51656651268684
  C   2.49558123256037      1.61439710940856      1.45019721407674
  Cl  -0.78115926057786     -0.64217980564206      1.58205288069148
  H   -2.05686211045128     -0.72530258465756      4.36211546932222
  H   -1.63087032787394     -0.57002857191642      6.09348149776263
  H   -3.76122939143388      2.53213983615010      3.34245930008191
  H   -2.83467441081413      3.77125063568740      4.22701395362670
  H   -3.20477600179842      3.98093990508264      2.48585226944099
  H   -2.61793671379657      1.58964022123261      5.09887717133425
  H   -0.96987570425689      1.82497441789453      5.73119683430918
  H   3.11117408368491      2.14698525149575      2.19019670217245
  H   2.73598949519204      2.00212504183098      0.45571864244523
  H   -0.42754807822822     -2.38192782656793      3.78696726877522
  H   -0.08137179794933     -2.49348531785144      5.53547164886349
  H   1.79842907874910     -3.45536063368410      4.31633668289420
  H   2.35007359016485     -1.98324077163483      5.09751223738725
  H   1.51181605514540     -2.23287859246835      2.12683725498486
  H   3.19084426317203     -2.23179468117169      2.73351736766014
  H   1.11389332094196      2.90143900452979     -0.84705780682313
  H   0.01674923646831      4.20201798340930     -0.34586465417165
  H   1.69177661557887      4.14652008137172      0.28847258130438
  H   0.62347533988213     -0.20396465468039      5.46780081021344
  H   2.81546741308176     -0.02580473697578      3.57853946767200
  H   2.13800965608781     -0.40196773602607      0.73664376746032
  H   3.77514636478779     -0.14916496415033      1.41519417377575
