41
Coordinates from ORCA-job CTAZCO10_2_1_tpss_d4_lanl2dz_631gpol_Co3.opt
  Co  0.50829727181974      0.65176014043177      3.19595498338794
  N   1.09660941991838      1.87079702050628      1.83966539648284
  C   0.34575853069655      2.66928543576010      1.14559948895899
  C   0.81105957611024      3.48594071796727     -0.02698014540027
  C   -1.12974685750707      2.79364639465711      1.49305609377933
  O   -1.90116335073441      3.21265118633727      0.64547912930279
  C   -1.66203694360888      2.51852333738986      2.89038318033782
  C   -2.94929033726205      3.20835396262513      3.24597796549410
  N   -1.01938379184482      1.70218499342515      3.66780055087166
  C   -1.54604143493599      1.32014187298240      5.00254381116914
  C   -1.40323759798462     -0.19352278285430      5.09239267383151
  N   0.00908888316100     -0.53118008981295      4.70767296812923
  C   0.20334673005454     -2.01750733619257      4.55588856328663
  C   1.65663853459049     -2.36994324986202      4.24629310601608
  C   2.12969910780542     -1.86508581002603      2.88499396730079
  N   2.17613857909569     -0.35991244431417      2.83188609808644
  C   2.72180111142770      0.13335707667111      1.52213717170904
  C   2.52192622580169      1.64291290815058      1.49398827132420
  Cl  -0.67679387910756     -0.46382373130157      1.72359626225798
  H   -2.06033575285211     -0.68989926839403      4.37059048672729
  H   -1.62294357079203     -0.56207628207283      6.10198739687404
  H   -3.75132796488282      2.46460794264938      3.37062448474738
  H   -2.84977992858377      3.76643244470997      4.18621154484888
  H   -3.24258465694060      3.88896105331231      2.44352987563971
  H   -2.58804599992618      1.62700943024052      5.12994676689047
  H   -0.93731062130155      1.83119629791254      5.76324128277684
  H   3.13623741014859      2.14735260226789      2.25480248944949
  H   2.77372786189033      2.06131498536915      0.51536251626516
  H   -0.46824192366258     -2.34217965484326      3.75418388014741
  H   -0.11452119045592     -2.49046484059785      5.49479742214786
  H   1.74176353331738     -3.46435431133884      4.24419789645696
  H   2.32527640875504     -2.01866901172751      5.04945943868574
  H   1.45811256196633     -2.18739147210254      2.08241965008042
  H   3.14085784874998     -2.23539775209676      2.66878898028965
  H   1.16978164897353      2.82613276514374     -0.83107898869477
  H   -0.01821726620221      4.07967667281480     -0.41846285955260
  H   1.63527103208976      4.15235208569718      0.26195574574234
  H   0.62100595058698     -0.22680607036315      5.48402276982819
  H   2.83140844492880     -0.05441024467932      3.57154362778284
  H   2.14095955298799     -0.34995402625189      0.72955964077920
  H   3.77973684370901     -0.13831294818996      1.42038641576108
