44
Coordinates from ORCA-job CAVDOS06-OH_2_1_tpss_d4_lanl2dz_631gpol_Fe3.opt
  Fe  3.75419474910083      3.07762000696525      3.24450291155919
  Cl  2.25659362718686      2.18511510212066      1.87540041778655
  N   2.53141943526732      2.51267799353587      4.72421540993012
  N   2.63904361347127      4.67479800310279      3.30396679141248
  C   1.55550624661409      3.42295749343430      5.01349632538015
  C   0.60024603579852      3.15347803828311      6.00166413782545
  C   0.64890674118142      1.93671433921141      6.68766412900194
  C   1.65265785280032      1.01220355460582      6.37106564188484
  C   2.57936265303489      1.33613530782881      5.37922614570216
  C   1.60135645880527      4.63826504298769      4.19430181567312
  C   0.68253728932737      5.69238447850834      4.25220622592567
  C   0.82911423455363      6.77766468813189      3.38110160944359
  C   1.89360663642248      6.78903912885598      2.47102623267380
  C   2.78433118681749      5.71348913456211      2.45513228118547
  H   -0.17564519626772      3.87973894229402      6.22519389729992
  H   -0.09054054085012      1.71071422673092      7.45219883608632
  H   1.71678550668666      0.05012605020524      6.87208183657434
  H   3.36408813229902      0.64769555162365      5.08430123351367
  H   -0.14409623792990      5.66085926517420      4.95582501841694
  H   0.11570670855771      7.59791466988752      3.40875106019050
  H   2.03581777186829      7.60987149303757      1.77335139732915
  H   3.62574499395461      5.65322704067788      1.77149090966981
  O   4.82194443394517      3.83856632259162      2.06698243707981
  N   4.94050784007241      3.59898181113085      4.71897952977305
  N   4.89806476131646      1.45160703505697      3.25030028525085
  C   5.93417535506808      2.70580457888146      4.99668881261193
  C   4.85814827822401      4.76183971404335      5.39706373337564
  C   5.91472565364665      1.49536395225395      4.16947561557753
  C   4.79404718301233      0.38984676087071      2.41787601765834
  C   6.87828070759311      2.98300072988940      5.99389266615862
  C   5.77371488900818      5.09035859029989      6.39739542168685
  H   4.05584640682608      5.43376527554695      5.11530559324656
  C   6.84033820829247      0.44998175028334      4.26860997621475
  C   5.69440695003121     -0.67766661268698      2.47084604389784
  H   3.96720578436948      0.41106951283718      1.71414075686365
  C   6.79821080746582      4.18551425229773      6.70179549652249
  H   7.67034306797901      2.27233955870644      6.20994158905369
  H   5.68207346185293      6.04131594777893      6.91513814381923
  C   6.73211973253039     -0.64874452966051      3.40926484605671
  H   7.64049506808184      0.49443128930420      5.00140123471177
  H   5.57127280418086     -1.51060520447791      1.78378293117394
  H   7.52775795682213      4.41388067705635      7.47516977342519
  H   7.44767227354780     -1.46516985370504      3.47317697495034
  H   5.29257047743307      3.20281888993591      1.47835785642580
