48
Coordinates from ORCA-job CAVDOS06-CH3OH_2_6_tpss_d4_lanl2dz_631gpol_Fe3.opt
  Fe  3.67482111435176      2.88548614546239      3.26593103144834
  Cl  2.43520982503920      2.03990982479170      1.59626613555829
  N   2.30984806878848      2.37454782855891      4.81858157902061
  N   2.50757096100859      4.64706086951347      3.46710433127428
  C   1.35455737684172      3.30700516152403      5.09358265190984
  C   0.36036341035775      3.04953457365161      6.04716227170326
  C   0.34700126991583      1.81955184541898      6.71270733815407
  C   1.32965090356262      0.86857839659497      6.41321037784963
  C   2.29536937087582      1.18714999062489      5.45729069363063
  C   1.44317836414555      4.55918719199534      4.31523895437120
  C   0.50860499468621      5.60028844274580      4.39592083137192
  C   0.67086231030096      6.73412797792791      3.59247475164163
  C   1.76407022106563      6.80679408981586      2.71995598367767
  C   2.66030561930202      5.73796080090268      2.68535573562843
  H   -0.39887669116833      3.79338281258697      6.26890298816678
  H   -0.42307246904215      1.60752162251417      7.45067573005208
  H   1.34888280574898     -0.10191463316408      6.90153259116300
  H   3.07434701913716      0.48417268585629      5.17774063133234
  H   -0.34305092768067      5.52839210682036      5.06533141212592
  H   -0.05181986396821      7.54519177021227      3.64363190147869
  H   1.91921391490164      7.66692472759825      2.07431393501920
  H   3.52314735426903      5.72826377537841      2.02550990523069
  O   5.05816340629358      3.84244123634395      1.96906131010956
  N   5.06493728672865      3.51913440168723      4.80667841786520
  N   4.94288677140128      1.18513308194712      3.54982477847442
  C   5.93670598934328      2.56753790480733      5.24889929768745
  C   5.00819728135972      4.71064941259506      5.44076548615293
  C   5.92737316163961      1.29914304390546      4.48976967672094
  C   4.85948343845692      0.05946284599825      2.80158736904752
  C   6.76919342845119      2.80781306480897      6.35137089306623
  C   5.81489353826908      5.01746797325451      6.53776502872213
  H   4.29353975296777      5.42611854327517      5.04436429406951
  C   6.85561291739418      0.26850830129517      4.68608869274118
  C   5.75162781090766     -1.00373889290272      2.95518807063407
  H   4.05153063712540      0.03285542996773      2.07544827806424
  C   6.70898140336951      4.04483464031776      7.00154691137300
  H   7.45063246444390      2.04171662164361      6.70884512576668
  H   5.73958587861281      5.99191397459105      7.01283345872307
  C   6.76684933918543     -0.89499474026834      3.91255954383997
  H   7.64799658804613      0.36932510668636      5.42169547911290
  H   5.64724927833156     -1.88913790863189      2.33373987846942
  H   7.34995023499220      4.24233565573271      7.85768671689128
  H   7.48378643502888     -1.70024449411886      4.05563738307014
  C   5.34203720319935      3.51891708474953      0.55828713202223
  H   5.87425712256788      4.36375321999210      0.11246872263746
  H   5.93714912576088      2.60202551449455      0.50545918863008
  H   4.37031054172468      3.37479852103929      0.08663987219958
  H   5.88962401195857      4.09788244945751      2.41954723209996
