42
Coordinates from ORCA-job CAVDOS06_2_4_tpss_d4_lanl2dz_631gpol_Fe3.opt
  Fe  3.69396227924910      3.02321925499724      3.56872730415377
  Cl  3.62674626712744      2.98186240072711      1.37475131049497
  N   2.21888076202961      2.30754534455320      4.75893284821239
  N   2.57041880375161      4.61668794576771      3.62197225748086
  C   1.19147913552748      3.19388019390154      4.94981166990675
  C   0.07415323534262      2.84748434958521      5.71623531809158
  C   0.00898064425900      1.57575905233817      6.29773224327898
  C   1.06793179059699      0.68031846268726      6.10583096295611
  C   2.15594994699635      1.08367840696074      5.33050979974151
  C   1.38261911356794      4.49147509897544      4.28822375969113
  C   0.46339963553083      5.54731970207773      4.29365371013676
  C   0.76603906477223      6.72651400143145      3.60428296208988
  C   1.98453249547166      6.83234822709578      2.91960574840386
  C   2.86549017985134      5.75209599169207      2.94569455914047
  H   -0.73699578947934      3.55507836084593      5.86088701650562
  H   -0.85528673918282      1.29230050653327      6.89379127324832
  H   1.05823683447443     -0.31286751232745      6.54652493921497
  H   3.00172765273501      0.42654075458721      5.15604017913896
  H   -0.48118296690093      5.44944659596835      4.82044771570186
  H   0.05436235519408      7.54875739261279      3.59503465720371
  H   2.24778131441293      7.72601304189604      2.36044427833702
  H   3.80994593006847      5.76044030661048      2.40826793132431
  N   5.20694854508488      3.76847239295743      4.68694667116835
  N   4.82265969648574      1.43230191907505      3.61880476498670
  C   6.24293604160829      2.88882513796693      4.86334831105477
  C   5.28466917942732      5.00447024647235      5.23029660296958
  C   6.03331303856068      1.57607438944142      4.23872414435252
  C   4.50685484683193      0.27899612518167      2.98330046117778
  C   7.38355193807820      3.25461539218495      5.58513429456341
  C   6.39596073211317      5.42681122704019      5.96110304413782
  H   4.43172190990320      5.65581314723388      5.07012623099720
  C   6.95605899520414      0.52338473894502      4.23642463521465
  C   5.38998771102140     -0.79945403881513      2.95221161706654
  H   3.54351091300466      0.25441468393428      2.48116859470479
  C   7.46365888522534      4.53852408673889      6.13711058398251
  H   8.20095861127821      2.55198810288163      5.71823912934552
  H   6.41640086674876      6.42909439370757      6.38030449777380
  C   6.63277150410690     -0.67336100107544      3.58792552129043
  H   7.91890642871156      0.63706412169477      4.72564136297802
  H   5.10914936126651     -1.70768003263887      2.42604655085650
  H   8.34594545310987      4.83672835904865      6.69857300680441
  H   7.34666339683284     -1.49358127149281      3.57246753012042
