42
Coordinates from ORCA-job CAVDOS06_2_2_tpss_d4_lanl2dz_631gpol_Fe3.opt
  Fe  3.62418085453812      2.91563257574437      3.50195377417607
  Cl  2.43666743429280      2.31648726021992      1.76372170055950
  N   2.34806970875321      2.47265159274462      4.81713780185215
  N   2.63100512518790      4.57750945864516      3.45957537868189
  C   1.35615342370962      3.39264672022762      5.03451521429956
  C   0.32477940214525      3.11372574440369      5.93752817574068
  C   0.31355322415076      1.88838680585470      6.61010027415406
  C   1.33885501975375      0.96286223237234      6.37152182130841
  C   2.34660877775510      1.28496330227825      5.46268596470329
  C   1.51315540607048      4.60889151957937      4.24285675420290
  C   0.65038976394138      5.71002612521789      4.21763806415680
  C   0.94594975700007      6.78084831254317      3.36716534218096
  C   2.09237809442944      6.72847058105569      2.56148421831955
  C   2.91452976766377      5.60188329844690      2.62824690316834
  H   -0.46206153293583      3.84434747986727      6.10360789167220
  H   -0.48664110514640      1.65672268547895      7.30892430526030
  H   1.36305825910522     -0.00069051314031      6.87322705047901
  H   3.15806913546211      0.60525803785266      5.22804670208457
  H   -0.24105042403216      5.72792609777310      4.83855128007364
  H   0.28308853172611      7.64180444328981      3.32527280285677
  H   2.34393792944610      7.53666830133692      1.88024239182694
  H   3.80067808282188      5.49441047085621      2.00700500270397
  N   4.93613601352995      3.56319147131837      4.78964178913682
  N   4.83705376202364      1.37059353642063      3.41047098899203
  C   6.04817385424256      2.76953417408900      4.91377946305654
  C   4.84340202474785      4.70352938493274      5.51601094890510
  C   6.00316122817441      1.53864576089569      4.11478689942265
  C   4.67737413016227      0.26165812825715      2.64745799258462
  C   7.09944846319157      3.13914558726039      5.75961765647363
  C   5.85967023991045      5.11933937063813      6.37370027907716
  H   3.93507133017124      5.28177768430437      5.38828752480430
  C   7.03183996734701      0.59450410853014      4.04821705145669
  C   5.66804968525183     -0.71851136339574      2.55307368758816
  H   3.74111716939156      0.18679328586407      2.10344975797148
  C   7.00912253445988      4.32681301717291      6.49294696278572
  H   7.97831049041784      2.50776540341735      5.85006071745213
  H   5.74681167507023      6.04369038987368      6.93356388001009
  C   6.86460687448319     -0.54885373306029      3.25733549451197
  H   7.95422077282841      0.74596274514229      4.60110589956204
  H   5.49434228995680     -1.59101783810573      1.92903788170381
  H   7.82114914526264      4.62402073348138      7.15247037518823
  H   7.65738371353790     -1.29061437968491      3.19527593485507
