30
Coordinates from ORCA-job CAPZUQ-oxo_0_4_tpss_d4_lanl2dz_631gpol_Fe3.opt
  C   13.21735735302490      5.24054597300831      3.91012088153441
  H   13.69515059215179      6.21568467899810      4.09013861290074
  H   13.79815901321594      4.47772199281646      4.43879508313789
  C   13.15064452619062      4.95104365542696      2.42132205580349
  H   14.15807113110130      4.92054533260482      1.98021359601258
  H   12.56626517493915      5.71899622866389      1.90333112639347
  C   12.05797500357179      3.59464864145426      0.73048875827714
  H   12.95124659595332      3.73892340863690      0.10488982320333
  H   11.32350492106684      4.38547138975059      0.55266134723419
  H   11.59914627717748      2.62506472084821      0.52798886354957
  C   11.13390945573121      6.53880475812696      4.22579903725155
  H   10.10253746796695      6.43554860658382      4.57341876403196
  H   11.12341304328842      6.75226487880539      3.15512077659036
  H   11.64659255728508      7.34298834650778      4.77513781919755
  C   13.28583776071150      2.46688026443066      2.55133822206397
  H   14.33900464992923      2.63019227462382      2.28896711397972
  H   12.90002565494361      1.60525035191040      1.99550811971151
  C   13.13546748572091      2.15212001438870      4.05382927638724
  C   11.93280705122209      5.03410579329852      5.96394547977578
  H   12.25412330622924      4.00580082058297      6.14426714128866
  H   10.94876367534713      5.19644095935595      6.40778416860516
  H   12.65831222105813      5.75352186886649      6.37377777114380
  Cl  10.02743785210719      1.82611517885376      2.45787192656305
  Cl  9.24131799840179      3.70966403271177      5.03818436458085
  O   10.09499204690553      4.75329624282256      2.45922007681584
  Fe  10.83652538031571      3.67189088863690      3.46884200472321
  N   11.83553305115686      5.25011571337058      4.48708135233135
  N   12.45898141634054      3.64699455407026      2.16716655307726
  O   11.98906839794184      2.56447749067673      4.55492041158063
  O   14.01862893900356      1.56578093916736      4.66916947225370
