35
Coordinates from ORCA-job CAPZUQ-CH3OH_0_4_tpss_d4_lanl2dz_631gpol_Fe3.opt
  C   13.45657689738346      4.98751696605899      4.27568810626045
  H   14.02666077881283      5.86441288410890      4.62048498730242
  H   13.87657103694054      4.10158973115920      4.75951344243054
  C   13.52691575770567      4.88000544791718      2.75693240064661
  H   14.57356622170496      4.75552306744813      2.43317145985746
  H   13.13956966850184      5.79657416907033      2.29712470420384
  C   12.41088928419879      3.94132654968171      0.80682959992695
  H   13.34331407566276      3.84756187608148      0.22727598122199
  H   11.98153714346108      4.93460691455061      0.65141846044906
  H   11.69483036313444      3.17492868650402      0.49580949454392
  C   11.54094619483955      6.51194362228281      4.50909852871611
  H   10.51261457286368      6.56991564079606      4.87801216158307
  H   11.56181976418256      6.76002314370903      3.44456684420687
  H   12.17707583505093      7.21146564631501      5.07269787791510
  C   13.31585371640193      2.42359262738385      2.47737819946374
  H   14.37789947769450      2.43810862806211      2.19235923092362
  H   12.78072958444620      1.70754518952974      1.84163564347758
  C   13.15236606105665      1.94674368827487      3.92690547205186
  C   11.93345596260007      4.79278296848487      6.18113568743932
  H   12.23198478306342      3.75105740569325      6.31900521821271
  H   10.89354502375144      4.92257282258779      6.49180741632346
  H   12.59258264768370      5.46843991401421      6.74775840777092
  Cl  9.94821408349819      2.16834208000507      2.30990332627396
  Cl  8.99208812010781      4.31794425837507      4.68793510108001
  O   10.09535047722156      5.45752452537668      2.14815669870330
  Fe  10.97286209403902      3.71831841185209      3.60104942790029
  N   12.02963332732211      5.11867529246689      4.72414258679206
  N   12.68249096386124      3.75740279555734      2.25549310650022
  O   12.06949250263973      2.42788263859172      4.51574214429671
  O   13.95999163126543      1.18610735696384      4.44857161872469
  C   9.15581353308787      5.09902386184567      1.09650872896834
  H   8.42165192054379      4.37888731979846      1.47250748388854
  H   9.73386017936260      4.63912603054457      0.29334624896286
  H   8.66411825836227      6.01015023690883      0.72953893313026
  H   9.52414805754627      5.67311760199918      2.92586526985082
