31
Coordinates from ORCA-job CAPZUQ-OH_0_5_tpss_d4_lanl2dz_631gpol_Fe3.opt
  C   13.25763752764681      5.24694818649891      3.93023197387453
  H   13.76630332336330      6.21017282329963      4.10343346758439
  H   13.82292275401047      4.47807952602184      4.46945345389930
  C   13.23162811652253      4.95364979421740      2.43240970396870
  H   14.25907685147974      4.94642069498712      2.03283429275143
  H   12.66749498391931      5.73042807836133      1.90419034943774
  C   12.19636268161224      3.62079348176672      0.68626413078026
  H   13.09833996117678      3.74557108398046      0.06625537391848
  H   11.48301038095368      4.42662835616587      0.49320104072575
  H   11.71400927847490      2.66363819282672      0.47473002824807
  C   11.19100548578560      6.56063926614822      4.19123956225525
  H   10.16502654384160      6.48212359916750      4.56222195005627
  H   11.15528085825012      6.72953850260386      3.11274472752417
  H   11.71142950862053      7.39489738468679      4.69058283531100
  C   13.35494335115903      2.47603001641954      2.52869452836598
  H   14.42831545925816      2.61496330642015      2.33771809954514
  H   12.99410028430025      1.62222412719077      1.94244052827350
  C   13.11218985037950      2.13026108811114      4.00096421191086
  C   11.93327984957694      5.07018803893145      5.95938134633028
  H   12.31360899558375      4.06544029849988      6.15996690258320
  H   10.92071832202723      5.15444959107898      6.36087426331501
  H   12.58713266688951      5.82833449815429      6.42135106263260
  Cl  10.02784527879125      1.69054547265293      2.26438797252329
  Cl  9.08857149861764      3.73538101910345      5.00978908527557
  O   10.04458476440414      4.74737361159032      2.32420414548300
  Fe  10.77337578859912      3.56724069489234      3.44922403469573
  N   11.88308265754145      5.28328360283833      4.48758555764227
  N   12.56145177841956      3.66258338010376      2.12702818709888
  O   11.93591700932534      2.55977175754093      4.47253127431469
  O   13.90638066869333      1.50875712485093      4.68864671458036
  H   9.09077352077561      4.51783340088826      2.24594919509414
