31
Coordinates from ORCA-job CAPZUQ-OH_0_3_tpss_d4_lanl2dz_631gpol_Fe3.opt
  C   13.24698937341176      5.24591624027661      3.92403418195820
  H   13.72072903538549      6.22335068646134      4.10371271626992
  H   13.81967542423033      4.49145058181217      4.47374421861567
  C   13.22356848493895      4.94460006182273      2.43147531626375
  H   14.24554414767809      4.91359668905931      2.02374586415315
  H   12.66110742319537      5.71755556764428      1.89629689217097
  C   12.15654440806822      3.60058470489730      0.70564908910085
  H   13.06931657148684      3.68663513227309      0.09702325384717
  H   11.47114957190084      4.42700105238149      0.50418620190809
  H   11.64758932334394      2.65413293729957      0.51076734219667
  C   11.16095819677564      6.54421296708923      4.19392249578157
  H   10.12111362384696      6.43789924823954      4.51404206069816
  H   11.18047238039787      6.76637839616031      3.12602973827991
  H   11.65966628779871      7.34254026226842      4.76485069989709
  C   13.33343084994816      2.45304936980537      2.52279753744009
  H   14.39087315458653      2.58586382958178      2.25889598067759
  H   12.92342596103456      1.60093621121494      1.96813184085293
  C   13.16191954942058      2.14354324308957      4.01065695220739
  C   11.89649566608586      5.04370527965724      5.94641517072540
  H   12.29175849623444      4.04708556858963      6.15104558448323
  H   10.87960097901673      5.11799842735895      6.33694670909554
  H   12.53792758739922      5.81938776708274      6.39244234258053
  Cl  10.02302413464901      1.84379144217646      2.39679909683931
  Cl  9.17778415900137      3.68710145311766      4.89585899958562
  O   10.15959705465567      4.83721047161773      2.32636987300472
  Fe  10.91325839455007      3.66954969870977      3.44513427753688
  N   11.85178845509753      5.25207192649081      4.46635803946587
  N   12.52648498306380      3.64995888162149      2.15019638321928
  O   12.01490582212886      2.61437382084036      4.50100082281503
  O   13.98248249512536      1.52131963831533      4.66705850384402
  H   9.22661800554280      4.54138844304463      2.22494181448521
