35
Coordinates from ORCA-job CAPZUQ-CH3OH_0_2_tpss_d4_lanl2dz_631gpol_Fe3.opt
  C   13.45922041240339      5.02817421128075      4.23093187691401
  H   14.04210971683469      5.90129447995992      4.56450872024109
  H   13.85938783762618      4.14441117883136      4.73700119053017
  C   13.54211494947441      4.88524007344853      2.71979907651593
  H   14.58068462464162      4.72601084161255      2.39156693458701
  H   13.16790165405925      5.79476313706325      2.23463363186433
  C   12.45815952408470      3.91895053524904      0.77902827680151
  H   13.42243561181747      3.85869304084777      0.25162059155453
  H   12.00519845071930      4.89861211115748      0.59705679851273
  H   11.78474468343747      3.12701727861536      0.44149182334520
  C   11.56572251997120      6.58201754456589      4.43126124604642
  H   10.52017045799547      6.64224057142294      4.75062762581432
  H   11.63836020263630      6.86076509448961      3.37697213472846
  H   12.17173063492411      7.26727946997029      5.04410551561865
  C   13.29319186345245      2.41809097365919      2.52016202059265
  H   14.37138409817582      2.43132862661711      2.31092047337471
  H   12.79717996012342      1.69682947849500      1.86064909091943
  C   13.00804464169446      1.98688527069349      3.96093385391217
  C   11.90915445036077      4.86396270990969      6.09554175941197
  H   12.14575662982777      3.80813502274415      6.23925095267982
  H   10.87968163869915      5.04803414569997      6.40860409818021
  H   12.60576529571575      5.50693271952366      6.65671959960396
  Cl  10.06596024597313      2.16768933397618      2.11347266742240
  Cl  9.12987915179039      4.02145277880711      4.75469780376640
  O   10.06384620740590      5.30041383308582      2.38469849004920
  Fe  11.01632713342152      3.77500745138587      3.41923734740383
  N   12.02696719812875      5.18151171060198      4.63630822520528
  N   12.67775648676987      3.75654076810678      2.24381927797499
  O   11.90864311076614      2.53096733495211      4.46705884084174
  O   13.73579705313957      1.21367871939692      4.57197138898293
  C   9.16029926474465      5.03411303697910      1.26399008308421
  H   8.40582391941659      4.30246526300733      1.56550551063863
  H   9.76238140873811      4.62759821088820      0.45198034370264
  H   8.70998709081144      5.99036205600011      0.97161802286318
  H   9.45925187021767      5.44327098695500      3.16762470631496
