29
Coordinates from ORCA-job CAPZUQ_0_2_tpss_d4_lanl2dz_631gpol_Fe3.opt
  C   13.26988704375204      5.21341059086297      4.01728615502397
  H   13.72568844752163      6.19848854256790      4.20393963048734
  H   13.82329284058810      4.46650305018656      4.59452292514349
  C   13.28437874584124      4.89147646780672      2.53257392305399
  H   14.31112511841533      4.74471792792645      2.16716935542393
  H   12.84367905952922      5.71612951501876      1.96077859300860
  C   11.98648869331273      3.74963828169899      0.83393589783545
  H   12.85220688239723      3.88596142140067      0.16782379625405
  H   11.30741431841753      4.60376401621694      0.73766131660731
  H   11.44613237583905      2.83527017882270      0.58447949590947
  C   11.10387202500134      6.40778604148875      4.05491889835590
  H   10.09055238330383      6.34059993068481      4.45920874944614
  H   11.04736135676604      6.42944232749560      2.96104642450163
  H   11.60348646089309      7.32079179120595      4.41488925957760
  C   13.25287020186304      2.41116294060761      2.45157743656948
  H   14.25282148590823      2.49338563969057      2.00585249736578
  H   12.69400559567653      1.60189880449061      1.96580925225423
  C   13.32320729256088      2.08730870517219      3.94284744574400
  C   11.87552244823379      5.15375396450220      6.00273374519662
  H   12.32933392299202      4.20713915591468      6.30747169215617
  H   10.84763940932523      5.20004184838091      6.36720353587765
  H   12.46173479938101      6.00575892854545      6.37994497375615
  Cl  9.92011135646987      2.00328719458903      2.45599447606613
  Cl  9.16317058977956      3.82190028155678      4.93864860930121
  Fe  10.99733171060135      3.52388799681590      3.69814567978241
  N   11.85716432607237      5.20034132663882      4.50595651433345
  N   12.45971585420295      3.66675097568474      2.25086230816722
  O   12.23991149800108      2.49549895696427      4.60409660723087
  O   14.25349375735336      1.49240319706232      4.46842080556966
