31
Coordinates from ORCA-job CAPZUQ-OH_0_1_tpss_d4_lanl2dz_631gpol_Fe3.opt
  C   13.24211287630187      5.24728235404460      3.92761772150381
  H   13.71516107911003      6.22491082052731      4.10788262059458
  H   13.81439014659933      4.49288697876857      4.47784514514449
  C   13.21878329025124      4.94477128114705      2.43624680755357
  H   14.24034583414436      4.91171019218912      2.02763232092553
  H   12.65707724318712      5.71807308557300      1.90074202608604
  C   12.14855105755453      3.60404272366642      0.71376278884800
  H   13.06110455458126      3.68372438500107      0.10394393758124
  H   11.47111627699314      4.43729139656448      0.51166720744941
  H   11.63231073791030      2.66163490456698      0.51805029655264
  C   11.15719088272276      6.54635446863870      4.19785992433399
  H   10.11694290983985      6.44146483791865      4.51717124726841
  H   11.17799787315147      6.76932361176362      3.13000638440090
  H   11.65655731523832      7.34442152996307      4.76831399137893
  C   13.32796578362955      2.45366924378034      2.51925829685713
  H   14.38447511037401      2.58733101129349      2.25209841688038
  H   12.91553226163902      1.60379857276553      1.96289199692321
  C   13.16380803475809      2.13507841175149      4.00645712946183
  C   11.90070800675662      5.05153667507641      5.95115316278201
  H   12.28749484584659      4.05164340015611      6.15705593124018
  H   10.88882895356833      5.13879116446167      6.35132523830723
  H   12.55466006358515      5.82250762258465      6.38704031514504
  Cl  9.99573693496018      1.87769285140370      2.39769626711283
  Cl  9.20446846039146      3.68173754920800      4.93520391311613
  O   10.16583208980709      4.84631623532471      2.33654157099197
  Fe  10.90779979613225      3.67662687566716      3.46450339869702
  N   11.84596513893674      5.25206664494237      4.46953922918753
  N   12.51846662269420      3.65128746952587      2.15833654862853
  O   12.02250695523578      2.61469161115684      4.49778680363756
  O   13.98426283702176      1.50158360962271      4.65236713516965
  H   9.29764602707709      4.44993848094616      2.09253222624008
