34
Coordinates from ORCA-job CEKNAH-CH3OH_0_2_tpss_d4_lanl2dz_631gpol_Fe3.opt
  Fe  2.49850722005928      3.32073240105178     -0.65450109717477
  Cl  4.78526631909792      3.22332908688594     -0.88661066847805
  Cl  0.22124359146180      3.76147536879109     -0.45576057011423
  Cl  2.15682631711502      2.26098296978059     -2.60508135402691
  N   2.80507348179157      4.22132464168842      1.13408356120276
  N   2.38361684189606      1.62522415966405      0.29303137769221
  O   2.54942304044891      4.98134058946655     -1.76501500930985
  C   2.07585015292409      5.29264375511591      1.52904215771337
  C   2.28389862408552      5.93805016552723      2.74481561749966
  C   3.27920532510528      5.45129103766119      3.61245402258844
  C   4.02746295277685      4.32891123506335      3.20925859350192
  C   3.76577917328678      3.75347779198695      1.96971676583750
  C   3.52212499073803      6.08071792234620      4.87569522568217
  N   3.72088399482270      6.59766326089986      5.90927084376612
  C   1.53028329291883      1.45817337888055      1.33251874380045
  C   1.41649365942464      0.24892931414867      2.00942916826960
  C   2.21136862902609     -0.83857730889722      1.59853402519071
  C   3.08591984146807     -0.66184491330055      0.51049216782907
  C   3.14273858020350      0.57857582756343     -0.11937750548576
  C   2.13119732828262     -2.09749085454190      2.27727866208501
  N   2.06957826107223     -3.12478588704282      2.83933029361428
  H   1.28969789546026      5.60418597514323      0.84860959353827
  H   3.79560333008663      0.77116253927827     -0.96364182062029
  H   1.67781416680703      6.79813418122279      3.01392195687145
  H   0.71927148057535      0.15234110438539      2.83626477952998
  H   3.71040090636503     -1.47617395637523      0.15584000355939
  H   4.80367126397074      3.91568529861561      3.84652243091978
  H   4.34093354522021      2.91023606135537      1.60191895986156
  H   0.92138851109081      2.31883392072065      1.58883516561251
  C   3.27998818351120      6.19577063594236     -1.46827987675753
  H   3.28772562603648      6.81601298668909     -2.37108655366109
  H   2.83249605383735      6.74466908985049     -0.62990628376967
  H   4.29165051912671      5.86952367143502     -1.22080529029705
  H   1.60380689990633      5.16062454899757     -1.97301808647102
