29
Coordinates from ORCA-job CEKNAH-oxo_0_4_tpss_d4_lanl2dz_631gpol_Fe3.opt
  Fe  2.35156748108050      3.57823594784877     -0.74650297323111
  Cl  4.63456172590674      3.35824180457411     -0.89860038084367
  Cl  0.11733623073178      3.72751089882968     -0.22424751455887
  Cl  1.96823751245580      2.48651441817476     -2.64936722388547
  N   2.70145684278585      4.46621682047996      1.06332440873682
  N   2.34985321240065      1.68588715365597      0.23736025437804
  O   2.35248054536426      5.05568602661798     -1.46322720841533
  C   2.09739636549859      5.65171460012349      1.29947664896795
  C   2.29731302553912      6.35310307398431      2.48503341642009
  C   3.14713857454288      5.80431126806503      3.46380879647037
  C   3.77899368565019      4.57388402699556      3.20237370595179
  C   3.53825373065109      3.94324359169363      1.98480404166044
  C   3.37116070027416      6.48884469125819      4.70256174070512
  N   3.55877820826770      7.05103348322998      5.71407992145270
  C   1.61521327667909      1.46158578969680      1.35006656280141
  C   1.57693034751224      0.22476924017796      1.98890176672474
  C   2.32372054599590     -0.83774757363316      1.44638287264491
  C   3.08075078033867     -0.60635552197581      0.28281815758335
  C   3.06824805778193      0.66561846738983     -0.28536184753161
  C   2.31387863149692     -2.12803320366354      2.07030745425993
  N   2.30999481577795     -3.18089961696236      2.58596605587477
  H   1.44887733158408      6.01942403134296      0.51084058601840
  H   3.64040826503505      0.89437380235766     -1.17858494883492
  H   1.80075908303751      7.30559695763352      2.64315014772454
  H   0.97413518930323      0.08737885846742      2.88169362910246
  H   3.66692374557275     -1.40000162910850     -0.17057594235881
  H   4.45297077674159      4.12451161139097      3.92540688203731
  H   4.03223132495764      3.01668154516693      1.71268174673154
  H   1.03102998703607      2.30236943618779      1.71162924341310
