28
Coordinates from ORCA-job CEKNAH_0_4_tpss_d4_lanl2dz_631gpol_Fe3.opt
  Fe  2.28250422083658      3.48175286351744     -0.59515902921784
  Cl  4.48830105755906      3.75442277173032     -0.99263265553035
  Cl  0.08922642839030      3.92718720675735     -0.29356572267067
  Cl  1.93635714624663      2.52077244321132     -2.57865539023147
  N   2.63530997831494      4.49923268056387      1.12911178837331
  N   2.34024259865075      1.57477162056015      0.37461383375693
  C   2.09670154301851      5.72311876427502      1.33142794658103
  C   2.38855019342305      6.48342958103476      2.46073815424937
  C   3.25909540043822      5.95171136303444      3.43032959826887
  C   3.81724601826969      4.67683262314614      3.21403564467736
  C   3.48957151083106      3.99304479575549      2.04791537165009
  C   3.57360623510456      6.69270259050022      4.61531439942329
  N   3.83015348317949      7.29645472851137      5.58707649777977
  C   1.44998757436034      1.23306672930704      1.33154461508799
  C   1.38818887596042     -0.05038422898239      1.86935581011916
  C   2.28888226228220     -1.02291955846690      1.39199325903441
  C   3.20905752259997     -0.66642034285297      0.38704853457666
  C   3.19627231228152      0.64019946446970     -0.09703065237493
  C   2.26688214497530     -2.35431385665621      1.92263843810971
  N   2.24729065403808     -3.44058452933263      2.36332058672818
  H   1.41051887613970      6.07523144473454      0.56746769371248
  H   3.87252912196741      0.97166733610959     -0.88102089933484
  H   1.94448817357219      7.46642343558983      2.58517633353491
  H   0.65803951248102     -0.29434321304348      2.63551717124299
  H   3.91104002627547     -1.39381059346371     -0.00993269270336
  H   4.49805651853980      4.23446222945982      3.93500964245783
  H   3.91931376518787      3.02473790287502      1.81494337839735
  H   0.76688684507582      2.01915374765482      1.64431834430173
