41
Coordinates from ORCA-job AJIMAI-OH_0_2_tpss_d4_lanl2dz_631gpol_Mn3.opt
  Br  3.83236376767871      9.80913756907538      4.24649868999088
  Mn  10.10937576766950      7.77876520376727      1.81586692696798
  Cl  9.24008301802681      5.86635776806722      0.79362559678271
  O   11.68770587150883      6.89164560377428      2.16769811975778
  O   10.81816182159217      8.44112023897756      0.21591952581546
  O   10.52233031718950      9.30594271576106      2.65979686334421
  N   9.25061192437975      7.17757462617717      3.46918054366298
  N   8.30340428363549      8.54684875959695      1.44519030447286
  N   7.33085471982324      7.57520597479492      4.81993064340110
  C   7.98558735191931      7.75561018000277      3.66848701387465
  C   7.48252825584151      8.51063259829546      2.57838818706535
  C   6.24024370312626      9.14120464516519      2.73822802072678
  H   5.81172246546851      9.76832612640594      1.96220303911147
  C   5.57476651898991      8.94684937874952      3.94741913143100
  C   6.13264169883719      8.16001096222047      4.96368101155710
  H   5.61490432218367      8.00924304288917      5.90830912690376
  C   11.00949260508090      5.67095081926304      4.16475646456587
  C   11.92232470312346      5.99333035138701      3.09483094635999
  C   13.17286389254124      5.32045203686649      3.05169546395462
  H   13.84856817605241      5.57172482022998      2.23810325930194
  C   13.50373185331551      4.37206096228735      4.00954209632665
  H   14.46508882921933      3.86404141933757      3.94715874836370
  C   12.61274392825847      4.05382540808491      5.06132833465983
  H   12.88564196682951      3.30911839401295      5.80555191410532
  C   11.38973372318758      4.70216283714290      5.13149280132333
  H   10.68953721490478      4.47475362667858      5.93496811548648
  C   9.74370466068323      6.30425237133512      4.31703359481203
  H   9.12883775899778      6.05061126113050      5.18429220824581
  C   8.71990178664224      8.99659677856379     -0.90031060843298
  C   10.14140494044100      8.75524941758724     -0.86866457117365
  C   10.86839576820173      8.89617785301561     -2.07956364862739
  H   11.93879846941802      8.70868270435314     -2.04408221312329
  C   10.22818577586364      9.23835368281560     -3.26308694200964
  H   10.81206697804749      9.32374613154165     -4.17868186954963
  C   8.83393313667101      9.47364694536370     -3.29966191636614
  H   8.34510437155770      9.74162550067060     -4.23345303819834
  C   8.10280526299795      9.35839937607762     -2.12959741723483
  H   7.02744666424068      9.53835052166684     -2.13276556499162
  C   7.89524226955983      8.93226192709302      0.25960277343285
  H   6.84434582959763      9.21007385799300      0.13210873728488
  H   10.97839362669550      9.86956560178064      1.99586958661796
