39
Coordinates from ORCA-job AJIMAI_0_5_tpss_d4_lanl2dz_631gpol_Mn3.opt
  Br  3.89960299670889      9.81237450717673      4.20167146282713
  Mn  9.96329786162566      7.29264472497347      1.53627317168504
  Cl  8.78537094610824      5.39109562988671      0.70201151424111
  O   11.61889082853421      6.60493639223003      2.05091287598203
  O   10.70253347434830      8.06130475759543      0.00004168938587
  N   9.27561596868935      7.09925000593743      3.39146296556713
  N   8.32947578964020      8.45883139688691      1.36033967161121
  N   7.39732494622779      7.58074056961964      4.77565017323551
  C   8.02579715344547      7.71267236552636      3.60286319323494
  C   7.51642376630636      8.45095919326074      2.50719970865581
  C   6.27782700009520      9.08989743695897      2.67331153713006
  H   5.82361858197322      9.68484703759587      1.88701251657188
  C   5.63593073356285      8.93997682823922      3.90071679811008
  C   6.21061885805354      8.18345785089012      4.93048984929350
  H   5.71271587701795      8.06586500689849      5.89047372733437
  C   11.06496538032148      5.68954091249111      4.23105048382783
  C   11.92833121595153      5.86001024592606      3.08928755813835
  C   13.19271757118168      5.21700630449030      3.10365197462568
  H   13.83946274649314      5.35445745196885      2.24069601892827
  C   13.57117415594503      4.42542935088044      4.17962767290866
  H   14.54085520574267      3.92933814333008      4.15747592454756
  C   12.72390008100503      4.24639078595845      5.30061338284128
  H   13.03968625981055      3.62038953385024      6.13199567925750
  C   11.49472888275562      4.87858961211610      5.32097455309338
  H   10.82474015846314      4.76251046770212      6.17275518420978
  C   9.81595588200673      6.34902106892555      4.33675499016917
  H   9.24602984660433      6.24883343486523      5.26381335340997
  C   8.72308441065589      9.08138963547777     -0.96121393277620
  C   10.08685832825329      8.61762892784439     -1.01743589427228
  C   10.80920322976808      8.80691455328445     -2.22404149823584
  H   11.83918411689927      8.46035070694757     -2.25455939587341
  C   10.20428905354363      9.39293112302262     -3.32693239762444
  H   10.77615110117018      9.50868992267988     -4.24689994544635
  C   8.85937995299312      9.83723337141352     -3.28294197232509
  H   8.40283560631292     10.29097609111492     -4.15952118955278
  C   8.14071328615887      9.68734206345700     -2.11218207139401
  H   7.10683977942293     10.02796973261071     -2.05037219746448
  C   7.94988176910409      9.01824160388962      0.22569818565155
  H   6.96018719709916      9.48096125207656      0.18217467849015
