39
Coordinates from ORCA-job AJIMAI_0_3_tpss_d4_lanl2dz_631gpol_Mn3.opt
  Br  3.87024105320885      9.75910363788940      4.16641147312887
  Mn  9.97530212199381      7.36755699289302      1.58539464563834
  Cl  8.92025803875008      5.51295713131437      0.82655042358375
  O   11.58418472932224      6.63098114477273      2.06667453839859
  O   10.65384046557572      8.00350722475397      0.00142222519904
  N   9.29047228337924      7.13203072668901      3.39225128853594
  N   8.35270315690506      8.45714235991996      1.37207943399688
  N   7.40108812511150      7.58853746120658      4.77820457460749
  C   8.03245332209503      7.72611803005173      3.60769490984428
  C   7.52094621193959      8.44965932215286      2.50667091977885
  C   6.26966053255530      9.06636059393175      2.65625198620422
  H   5.80894590225064      9.64799659517253      1.86424008139560
  C   5.62429488286960      8.91365098819808      3.88214676077150
  C   6.20382037625671      8.17467427605565      4.92115589578988
  H   5.70157795562563      8.05662959766637      5.87862667402900
  C   11.05863366860008      5.70177302836279      4.23711457601454
  C   11.91272150757714      5.87150996537511      3.09158848610467
  C   13.17436799463097      5.22422511068756      3.07907382474835
  H   13.80746465786675      5.36431529254541      2.20640503265619
  C   13.56492927343731      4.42667092118979      4.14561693088429
  H   14.53078070490431      3.92463904097832      4.11054983045467
  C   12.72669853184779      4.24818317976112      5.27453878799214
  H   13.04989236669227      3.61781483345844      6.09993981608472
  C   11.49792955799604      4.88185059534938      5.31539566634060
  H   10.83972950787696      4.76289565988154      6.17570886669475
  C   9.81088890829584      6.36310700482211      4.34144194045378
  H   9.22818701748330      6.25676023666702      5.25836336652633
  C   8.71851481166769      9.08625436760389     -0.95325130348848
  C   10.06496579447492      8.58428147363991     -1.02077210225117
  C   10.79523004983692      8.74898209228980     -2.22556552903366
  H   11.81208784789504      8.36559241228021     -2.25697943959665
  C   10.20982375766334      9.36148640096506     -3.32423407816742
  H   10.78075131368527      9.46351887892195     -4.24600361601511
  C   8.87968500478232      9.84847151087606     -3.26996759593701
  H   8.43666174016860     10.32438846983861     -4.14192764923108
  C   8.15409648293857      9.71421733207741     -2.10039369806272
  H   7.13237718624524     10.08904391397848     -2.03710646293509
  C   7.95408777884698      9.02033092909475      0.23795100275217
  H   6.96590537674706      9.48378126668704      0.20763751610890
