40
Coordinates from ORCA-job AJIMAI-oxo_0_1_tpss_d4_lanl2dz_631gpol_Mn3.opt
  Br  3.80543816272270      9.73087815059530      4.18187224245189
  Mn  10.16173514046549      7.86041237625214      1.82932495050290
  Cl  9.03865144216990      5.87854923945415      0.96436049459570
  O   11.67388297844375      6.84310538352732      2.05916633066136
  O   10.82337698690915      8.14212683638555      0.13195440671178
  O   10.48714364188630      9.21772868808842      2.58406013718266
  N   9.27920281818762      7.20048605233579      3.47257295160807
  N   8.34284997057208      8.59314543833647      1.43886645569825
  N   7.33516820824059      7.55898712564609      4.79058890397698
  C   8.00363158892447      7.75709731603007      3.64902268306958
  C   7.50735286654353      8.52043563197351      2.56041656546581
  C   6.25106699042950      9.12748953087887      2.70934954590461
  H   5.82006595605123      9.75109939268647      1.93207545492550
  C   5.57015220944950      8.90934764009758      3.90442246229902
  C   6.12645765458355      8.12158997085513      4.92196788472755
  H   5.59585607013674      7.95059872149301      5.85595000813721
  C   11.07029825787144      5.74005608787319      4.16366511876473
  C   11.92588527673739      5.99076743757028      3.03231971030306
  C   13.15252198890183      5.28077678485741      2.94691730584333
  H   13.77908218817197      5.47161559485863      2.07932675044575
  C   13.53140640210736      4.38683148623462      3.93990242368049
  H   14.48002293501757      3.85945863301611      3.84992059176213
  C   12.69978683131432      4.14504502700053      5.05644858271254
  H   13.00310386903178      3.43789835439644      5.82503944518428
  C   11.48814027528425      4.81279381689615      5.15417617913197
  H   10.82554707573736      4.63182087341952      6.00022413754063
  C   9.79465510060968      6.35589380374055      4.32880592679981
  H   9.18990027279237      6.09405038018089      5.20060754554863
  C   8.79609600551290      9.05987743577642     -0.89495458014924
  C   10.16164735503375      8.59893983471082     -0.90954114526525
  C   10.86984565991102      8.64156606651736     -2.14002034561775
  H   11.89421649360222      8.27784064914375     -2.13547872160821
  C   10.27354205295552      9.13057475900785     -3.29426253920216
  H   10.84357158078344      9.15174854959275     -4.22191417778250
  C   8.93611227402440      9.58773520703941     -3.28361045636840
  H   8.47472676230165      9.96154049086835     -4.19467698348577
  C   8.21797933661686      9.54406760480974     -2.09906736775795
  H   7.18134533959049      9.88066718360902     -2.07375284628393
  C   7.96563870325874      9.03035733424301      0.26495600731668
  H   6.93129527711506      9.36169911000092      0.13379796056819
