43
Coordinates from ORCA-job BIGFIH_2_5_tpss_d4_lanl2dz_631gpol_Co3.opt
  Co  1.10306444590703      6.34934467402547      1.23897661165657
  C   -0.12578104811668      7.40505471670855     -1.10929723744047
  N   0.08340653091629      7.77307582926195      0.13807259391302
  C   -0.60950508325343      9.07656212659376      0.32700661288911
  C   -1.03952104446137      9.52136317094541     -1.10390609446258
  N   -0.83891953822671      8.26207191978244     -1.86561964885264
  C   0.37357118226146      6.06760439263278     -1.49048623082407
  N   1.01522967451020      5.39501450058032     -0.55598801350068
  C   1.43836670667432      4.09729420046816     -1.14528231886006
  N   0.26182750022124      5.45011398143970     -2.67911735354389
  C   0.80264733608252      4.07134806574767     -2.57258346740149
  N   -0.40146664085531      5.80950701012969      2.51123852344316
  C   -1.86528804599184      5.92376253967447      2.73457148143087
  C   -2.15687958270701      5.10604008149072      4.03544377833320
  N   -0.79275441272629      4.69730475100822      4.42619146400289
  C   0.09614257659500      5.11939146175396      3.53522777701581
  C   1.58024960713979      4.89554683352127      3.66443183777820
  O   2.07125768976265      4.30704469968547      4.62911581484731
  N   2.21344947164931      5.44897972151198      2.57934732922364
  C   3.66611008038152      5.50768394457313      2.52239986743342
  C   4.00455469406183      6.91925526723259      2.00157611562840
  N   3.11420716285333      7.21970137930704      0.83517734813396
  H   -0.92165344317712      8.22009901605405     -2.87715462775048
  H   -0.32586900310388      5.75231117410003     -3.45031095609456
  H   -0.53853357607187      4.15993491734679      5.25466573805875
  H   3.09208228904485      8.22894413639507      0.65526293928911
  H   3.48638148664452      6.78829452527893     -0.01782881038856
  H   1.09064929713190      3.27238491007415     -0.51549775530646
  H   2.53438197017641      4.06178876128359     -1.18458738231520
  H   -0.39707268332630     10.31054919095219     -1.51429620116952
  H   -2.08421089811992      9.83890885927432     -1.16201814175833
  H   -2.39752172151320      5.52781160703552      1.86244581287313
  H   -2.13093570760171      6.98252646292290      2.84479446767497
  H   -2.61298052984100      5.70387299861765      4.83215808163972
  H   -2.77595284774210      4.21926610224145      3.85517145869180
  H   4.11646089829980      5.30899029159562      3.50208191563424
  H   4.02908959146064      4.74373036514161      1.81648631235054
  H   -1.47561259012178      8.91979739744698      0.98285341006043
  H   0.05871559661947      9.79585802964542      0.81025935077656
  H   1.53622497232602      3.89083563959184     -3.36424800811078
  H   -0.01345550836247      3.34469947747851     -2.66197295730988
  H   5.06518469118705      6.99140605602953      1.73122392489932
  H   3.78625845341276      7.65942481341861      2.77861463741142
