44
Coordinates from ORCA-job BIGFIH-oxo_2_1_tpss_d4_lanl2dz_631gpol_Co3.opt
  Co  1.24456023830455      6.77413614092172      1.44024450378136
  O   1.10580323068574      7.92930882554514      2.63177332559560
  C   -0.16482631626260      7.37232706721082     -0.93959153545242
  N   0.22764656283710      7.92074886043687      0.18760847773622
  C   -0.46312119503948      9.22231393086875      0.34658684023716
  C   -1.12338608784266      9.46004747261277     -1.04849440995397
  N   -1.02212435731269      8.10726955767752     -1.67109818254756
  C   0.34751135683730      6.00772727102169     -1.14802881197705
  N   1.20668738872483      5.60159913114163     -0.23232219598662
  C   1.42431530792604      4.14871447713994     -0.44766903275596
  N   0.00098431381349      5.09240024721684     -2.06520291511913
  C   0.84591929873098      3.88388116302263     -1.86995549504213
  N   -0.28873520320972      5.79796580236701      2.12201147828862
  C   -1.66309412586684      6.24635584461612      2.46150414284385
  C   -2.15416288655584      5.14733888310676      3.46062978122515
  N   -0.86669128805602      4.53684059817213      3.87568184635152
  C   0.09453537884530      4.93767262887772      3.05413340651684
  C   1.55444270355765      4.59586664294886      3.12895330722259
  O   2.04711741107872      3.71743407100510      3.83318714334786
  N   2.22427596494659      5.46651775426929      2.31005739278380
  C   3.68723008946459      5.52166522267963      2.20547751333510
  C   4.02473999188757      6.98705183750862      1.93379095251421
  N   3.03643143263102      7.47284101145479      0.90492778488466
  H   -1.20446967252889      7.96060820672221     -2.66046452025008
  H   -0.50716042866288      5.27953051179365     -2.92524731237626
  H   -0.75484253179989      3.78773627162142      4.55694421595395
  H   3.03523128962901      8.49679607811621      0.84185231876866
  H   3.24053859524302      7.09714322874192     -0.02873097519935
  H   0.87311231340781      3.59575215718905      0.32451590010768
  H   2.48475712115828      3.89464871000270     -0.37185346564734
  H   -0.56703939768522     10.18592419010811     -1.65415760827780
  H   -2.17036519952524      9.76763368466592     -0.98060509446232
  H   -2.28855004323852      6.30700183379209      1.56681044090778
  H   -1.60785979273819      7.23452181793967      2.93879034886381
  H   -2.68434866438657      5.55403097867901      4.32587165962148
  H   -2.77772640878102      4.39209179952962      2.96558279662439
  H   4.13971148058447      5.16024035070217      3.13691974136911
  H   4.02761178326799      4.86813136783834      1.38718819672621
  H   -1.20560611773974      9.13540314173325      1.14950379503553
  H   0.24874366613674     10.00507625118753      0.62294634360605
  H   1.62648418517465      3.85293241453454     -2.64083374622559
  H   0.23674534567223      2.97804903538084     -1.92831207375690
  H   5.05102595509718      7.12498986987847      1.57309677452799
  H   3.86364731158913      7.59183365802030      2.83077694625321
