101
Coordinates from ORCA-job ADEVEN-oxo_1_1_tpss_d4_lanl2dz_631gpol_Co3.opt
  Co  1.24331933013219      1.81083407232627     10.49294455383062
  O   2.12515087872535      3.21796518078935     10.90387487142048
  N   0.93929122471791      1.39292637174185     12.34421040940445
  N   1.46818401776728      2.17052980686145      8.60959946534582
  O   2.87577020622262      0.83122302449936     10.54227440543309
  O   -0.34750155795769      2.86809272288530     10.50012102983762
  C   6.45580614914019      1.05079960417282     15.81468602974398
  H   5.43997490253248      1.04884118555444     16.23246741964535
  H   7.15477947006736      1.26825099761177     16.63373234300902
  H   6.67202092575559      0.04300434262329     15.43565989492699
  C   6.29990166078233      3.51678351398465     15.26790486865256
  H   6.38771769095418      4.28720419466551     14.49042681478224
  H   7.00795831897529      3.75500972595019     16.07322872166540
  H   5.28534859245289      3.56703120756956     15.68552755290627
  C   8.07346413298248      2.09246176507476     14.20121945773473
  H   8.35759075304364      1.10905653845871     13.80144527269945
  H   8.74197690416196      2.31344472934401     15.04309049446127
  H   8.25350621582858      2.85067382158980     13.42635945734851
  C   6.61174077857239      2.11031040337705     14.69237005673700
  C   5.61446207142393      1.79790521290463     13.57220775591606
  C   6.01879009119126      1.52662888425666     12.24291661930157
  H   7.08054627976494      1.55660771693247     12.02499368992241
  C   5.15115935520571      1.23191438519180     11.18950922348990
  C   5.68274368229103      1.01966818634679      9.76730816609236
  C   5.23984059149134     -0.35948183522369      9.21341020756888
  H   5.58311531494265     -0.47052217831612      8.17503875704841
  H   4.15369002023601     -0.48547188540220      9.24412615532850
  H   5.69037645041755     -1.16792126558026      9.80561985403552
  C   5.15929548990746      2.19250669753485      8.89246039803726
  H   5.36723477469752      1.99684258247955      7.83033540164202
  H   5.67032357106390      3.12281206092432      9.17403629382256
  H   4.08601228126949      2.35527779183269      9.02987158707992
  C   7.22579192269595      1.04815431937291      9.70191441776849
  H   7.67740376798121      0.25334741536672     10.31173920814319
  H   7.63648869022173      2.01511161726434     10.02304047365700
  H   7.53905452292304      0.88816244207126      8.66172856341143
  C   4.24293808821266      1.76876026010978     13.83350103797136
  H   3.87012881941640      1.96689915327542     14.83814072020326
  C   3.73986252422796      1.19966819370888     11.47001629224435
  C   3.31018517450905      1.49845980744694     12.81838052568223
  C   1.92660510563512      1.37688417032170     13.18621430927434
  H   1.69316443357831      1.23714453017695     14.24785429793787
  C   -0.41645958071461      1.03189298812350     12.75888937229757
  H   -1.09672695808724      1.71317944877790     12.24536893500719
  H   -0.52654269351113      1.18034292275550     13.84157586397216
  N   0.16436570808024      0.00169702624076      9.98692286288422
  C   -0.69747992896393     -0.43574413862052     12.36732613931499
  H   -1.77108694882084     -0.55955213378088     12.17636309887076
  H   -0.44650441086583     -1.10141355724683     13.20442764410054
  C   0.13937569688636     -0.91517048057046     11.17580334567998
  H   1.18810308778458     -1.03138149042004     11.47411105999445
  H   -0.23508955793353     -1.90020580745254     10.85305082127055
  C   -1.21455670828731      0.31424973193819      9.52610541466087
  H   -1.72584504923274     -0.60608763373934      9.20178520513858
  H   -1.16781386862093      1.02853363297742      8.70157270561634
  H   -1.77648385626995      0.78215868813515     10.33589793251646
  C   0.89997550526838     -0.76824637126159      8.92708909624150
  H   0.34943503480962     -1.70817587678381      8.75552281716453
  H   1.87851283406001     -1.01700072409356      9.35397851778632
  C   1.08883274804096     -0.04640730952026      7.59396367225753
  H   1.54860706645859     -0.76610234350111      6.90241977933208
  H   0.12825601111603      0.24673679662147      7.15007395529794
  C   2.02217042904954      1.16031187982421      7.70426348981894
  H   2.98489829637795      0.84190164532938      8.11207493802813
  H   2.18830831860078      1.61462276012443      6.71733508693378
  C   1.21395542756569      3.36513910171194      8.16542547699890
  H   1.48511975201178      3.59271783522658      7.12841582524476
  C   0.58503335933353      4.41427526077774      8.91873604973610
  C   -0.23042276371563      4.10326346712597     10.06947844629439
  C   -0.97674565279912      5.17408153171178     10.68610700579927
  C   -1.84164071457761      4.92700691440398     11.92797037327122
  C   -2.92064465512393      3.85380637640418     11.63023359517723
  H   -3.60763532519698      4.20956939755768     10.85011839218411
  H   -3.50943910355587      3.65782557876176     12.53714997105596
  H   -2.47760369338682      2.91474723747017     11.28561604835510
  C   -0.90950675436159      4.49348262518870     13.09107744991449
  H   -0.23467144622841      3.68669325125254     12.79221328635158
  H   -1.50855874505651      4.16450357653002     13.95254598800911
  H   -0.29060184901968      5.34272872432770     13.41005687375126
  C   -2.58790994605455      6.19990037726087     12.38391103591489
  H   -1.89509167659797      7.00478294772071     12.66546001714657
  H   -3.19062474233484      5.96107829641622     13.27009575946187
  H   -3.26976975261806      6.57652363560389     11.60871232152476
  C   -0.84074743020978      6.44617319427538     10.14085405016305
  H   -1.38565299450805      7.25947404760461     10.61152003290625
  C   -0.03364590922317      6.77095797764330      9.01581153590714
  C   0.65664222220819      5.72555373947847      8.40872528770644
  H   1.27678224014065      5.90328366638572      7.53265964798084
  C   0.03128878378705      8.21947680116688      8.52950176574679
  C   0.55677929610466      9.11574172129314      9.68190694211996
  H   1.56527871085654      8.80828814813578      9.98893085197676
  H   -0.09699924024149      9.07186503675859     10.56299352926750
  H   0.60015090342736     10.16141825241680      9.34828481602987
  C   -1.39349030105758      8.68296568313032      8.12600094412015
  H   -1.36112469575999      9.72583597451194      7.78262628810011
  H   -2.09427885839695      8.62889545576999      8.96969231374174
  H   -1.79031389132392      8.06303950843665      7.31110073996166
  C   0.96548106840608      8.38214623547888      7.31398451340956
  H   1.99565774586608      8.08158813744088      7.55120078035707
  H   0.98828281097129      9.43594879783636      7.00829554777827
  H   0.61750302728305      7.79488036084999      6.45245766718459
