100
Coordinates from ORCA-job ADEVEN_1_1_tpss_d4_lanl2dz_631gpol_Co3.opt
  Co  1.29525168419478      1.86099738036049     10.50337165454597
  N   1.07650119926725      1.42421788144759     12.34352696769811
  N   1.50941327485138      2.32685763926843      8.66003866907667
  O   3.10313857910176      1.37896174302817     10.55007391882404
  O   -0.01685386643721      3.18649046181202     10.72881555135982
  C   6.38830818314442     -0.01918420382811     15.87024940777301
  H   5.35285957186971     -0.05207292227606     16.23544407828907
  H   7.05272468671944     -0.04772290436738     16.74455075787017
  H   6.56772969617342     -0.92215873478479     15.27141110698027
  C   6.39468879921950      2.51119427547730     15.91410194364080
  H   6.57944161605319      3.43299824871457     15.34645566813420
  H   7.05790911272102      2.50633373802785     16.78987060662048
  H   5.35819648620459      2.53662251043336     16.27696655343556
  C   8.14590090025851      1.26247361491064     14.61788637146774
  H   8.39810571955212      0.38472596386612     14.00646361832324
  H   8.77835280106056      1.23439854427246     15.51451940054372
  H   8.40946927527043      2.16837971088719     14.05436223653517
  C   6.66211985113581      1.25994011378311     15.03797789809535
  C   5.71397541522307      1.28622111416517     13.83271420587607
  C   6.17454333071375      1.33364064196547     12.49656766162050
  H   7.24660465241079      1.34623003770781     12.33411984841137
  C   5.34770717656092      1.36605937757877     11.36860631634554
  C   5.93843111153216      1.38448105215929      9.95146404365840
  C   5.54024831351178      0.07240848165363      9.22466244692593
  H   5.88399027030183      0.09958612562290      8.18103019296055
  H   4.45583118689617     -0.08349395686262      9.23481245091737
  H   6.00914324531025     -0.79124721818223      9.71536471440561
  C   5.43477335211655      2.63201325968143      9.17744237647838
  H   5.82528703241651      2.61034922762934      8.15011949576967
  H   5.80084724713063      3.54896657903649      9.65914989058638
  H   4.34280268914385      2.67855668424593      9.14047361795121
  C   7.48142920094110      1.45076722762783      9.96182645601970
  H   7.93118111805172      0.57291403342263     10.44594465494332
  H   7.84800942326601      2.35606897139182     10.46502735132784
  H   7.84277165347116      1.47727679072618      8.92539217136089
  C   4.33177068258316      1.26731461043486     14.02291968757423
  H   3.91404549103537      1.22913882313576     15.02906370834493
  C   3.92967997739444      1.35772993184586     11.58577821183454
  C   3.43991561275608      1.31093290252112     12.93391191105134
  C   2.03535978057213      1.26412512958452     13.21333055178101
  H   1.74716175159314      1.06585840252891     14.25203507427947
  C   -0.31106004324179      1.18271166658034     12.75578293750395
  H   -0.91425087807707      1.96293104423252     12.28801068684992
  H   -0.40340705881567      1.28328578790297     13.84587726470796
  N   0.17447034743721      0.11469719611609      9.93834683553253
  C   -0.77339729379988     -0.22416647848985     12.29897161296493
  H   -1.84832163924854     -0.19439317933703     12.07990720217238
  H   -0.64231294204348     -0.94167503460935     13.12037230906629
  C   0.01603272430695     -0.79675010745583     11.11503070866219
  H   1.03325582569011     -1.05089954566477     11.43661995970703
  H   -0.47230892044442     -1.72686767740569     10.77848850500522
  C   -1.14633247564729      0.54244123797499      9.41006529414332
  H   -1.73109964801523     -0.32862955947370      9.07211116363033
  H   -0.99699799381654      1.23299359498853      8.57702661082184
  H   -1.69255177711914      1.07411390605883     10.19275226936909
  C   0.95559580876471     -0.65145641047557      8.91193252802633
  H   0.39568275646138     -1.57224106190820      8.67343796137206
  H   1.89534636702873     -0.94313436818930      9.39858200739783
  C   1.26381730444324      0.10002816200705      7.61455918779945
  H   1.78992690171435     -0.60692261641361      6.95771143810314
  H   0.34165314911699      0.38556547328217      7.09027782537767
  C   2.16519064817072      1.32743785758557      7.80648227866109
  H   3.09703839291569      1.03684131755535      8.29859886985550
  H   2.40589767220732      1.77453423941518      6.83153472911032
  C   1.08560568929824      3.42986087163699      8.10171829977685
  H   1.31581370444238      3.57522437828583      7.03999326795000
  C   0.35700659634451      4.48213803245487      8.74215163852842
  C   -0.15299962534017      4.32634461980756     10.07040340520517
  C   -0.84227121019956      5.42933161681102     10.68160121593485
  C   -1.40863112041070      5.32919515890025     12.10544156380181
  C   -2.56182529863739      4.29158414398487     12.11029565911538
  H   -3.39627789180622      4.64627535243663     11.49046075503646
  H   -2.93537493508590      4.14303351065767     13.13326607759296
  H   -2.23390581845966      3.32487879310207     11.71195353258912
  C   -0.29313170837313      4.92373956328535     13.10510651826367
  H   0.16591031920500      3.96887944049647     12.83541984727517
  H   -0.71849001888331      4.84263763097877     14.11544467637899
  H   0.49363087730192      5.69031714675314     13.12944744325710
  C   -1.99180360505646      6.67288917173212     12.59458311388046
  H   -1.23389135777730      7.46852714957389     12.59715875490757
  H   -2.35180481290487      6.55178253784111     13.62469337298717
  H   -2.84456000579061      7.00234388891979     11.98505208522512
  C   -0.99972420152772      6.58511524687204      9.91708285353095
  H   -1.51917863586011      7.42547479933190     10.36905382040101
  C   -0.52883875566267      6.75208598114128      8.58913599642681
  C   0.14919803711775      5.67909151076354      8.02039080286204
  H   0.54939538123551      5.74460712334575      7.01035653898439
  C   -0.77379939370377      8.07764298523609      7.86133557446359
  C   -0.10359729092686      9.22685349920437      8.65779158842000
  H   0.98153961601833      9.07281296218043      8.72816357867413
  H   -0.50374110408039      9.30367223594249      9.67755104259135
  H   -0.28403698517647     10.18608116129953      8.15375059027803
  C   -2.30099806543104      8.33259526504196      7.77339499172630
  H   -2.49265517714414      9.29020368756713      7.27038641694543
  H   -2.76412071587329      8.37773268297175      8.76813638744270
  H   -2.79799098034821      7.53711405226708      7.20206499696815
  C   -0.19549977821477      8.06829638539670      6.43212184684630
  H   0.89334240358760      7.91773228075927      6.43472830130581
  H   -0.39491366383653      9.03325068893092      5.94859381647224
  H   -0.65611498132183      7.28515770915846      5.81334599247515
