100
Coordinates from ORCA-job ADEVEN_1_5_tpss_d4_lanl2dz_631gpol_Co3.opt
  Co  1.18139388911339      1.68322217077869     10.44072476604086
  N   0.99451153472778      1.20869357077214     12.42405569236719
  N   1.38394732905208      2.22080045818403      8.47732920128075
  O   2.99097835309188      1.09826431201129     10.58683642416492
  O   -0.13016428147407      3.05657211427716     10.58942569119393
  C   6.45900693040411      0.46751791942144     15.90814545979431
  H   5.43469434565842      0.39178044938705     16.29705950574095
  H   7.13712859297924      0.56756938674639     16.76641704711107
  H   6.69729757682382     -0.46937199413181     15.38722589608438
  C   6.28194803669556      2.98558029486640     15.73647471578489
  H   6.39522239150926      3.86704022817193     15.09129723257227
  H   6.95710988469845      3.09765870966523     16.59569403907363
  H   5.25171882331458      2.97140194109064     16.11709697418143
  C   8.09827108717217      1.75856031859886     14.51209044509095
  H   8.40822079015977      0.84852211993617     13.97975195533589
  H   8.74318497859841      1.86308540585667     15.39408390332343
  H   8.28366075873437      2.62468302730128     13.86166621458265
  C   6.62512993081072      1.68565533143399     14.96264038286741
  C   5.65831685295389      1.53998160500261     13.78198635081039
  C   6.09491505858735      1.49819721750955     12.43685994055527
  H   7.16028546213939      1.57263341573237     12.24872578093647
  C   5.24633231434051      1.36424146392292     11.33516376657871
  C   5.79302467666872      1.32536222140182      9.90135051365085
  C   5.43185366145766     -0.03316561491748      9.24428066617395
  H   5.79133493511189     -0.05097699405779      8.20568064546205
  H   4.35028198115797     -0.20455708404643      9.24717407290478
  H   5.91227834354065     -0.86006812962536      9.78464640647497
  C   5.19666731896505      2.50482751189324      9.08744042466592
  H   5.55342374573307      2.45662608156374      8.04867220406996
  H   5.52056920628027      3.46447739805291      9.51314095608657
  H   4.10228290242574      2.48227802944386      9.08521607257687
  C   7.32991879568026      1.46591507428264      9.86020924924053
  H   7.83354236714581      0.64392485081358     10.38754284976243
  H   7.66701592972682      2.41852197489734     10.29179109853297
  H   7.66156926525899      1.44032350115459      8.81391951775249
  C   4.28201649077884      1.44383661582742     14.00810366929587
  H   3.89192191997085      1.46381206032397     15.02588127940208
  C   3.83575950820518      1.27363738360491     11.58617016245080
  C   3.36350710630525      1.32966881549678     12.94973474235905
  C   1.96777010993068      1.18561713722596     13.28568324732741
  H   1.73353488498767      1.02907687989785     14.34836395842148
  C   -0.37044200346764      0.88988283623127     12.83329337368131
  H   -1.01811724042419      1.65863532204110     12.39808911504798
  H   -0.48038692222912      0.92632586236992     13.92772619592268
  N   0.07307320913124     -0.06534543861034      9.89682486087815
  C   -0.76549195193482     -0.51431953436573     12.29869701155627
  H   -1.84668479948086     -0.53461649669057     12.11088915626008
  H   -0.57179330995464     -1.26413605474737     13.07801016170551
  C   0.01841442384791     -0.99980554189358     11.06788790142639
  H   1.06242595867595     -1.18564252799696     11.34813514965357
  H   -0.41800476065876     -1.95750552337485     10.73617425786948
  C   -1.28863349247383      0.31612006019303      9.44336784444630
  H   -1.84857006236259     -0.56650285087749      9.09330985829300
  H   -1.20824397465806      1.04935328281974      8.63723691280243
  H   -1.82543428065965      0.78715273873400     10.27063691035273
  C   0.83032651865027     -0.77982144232806      8.81359005736042
  H   0.30460322185932     -1.72630598193211      8.59844060715895
  H   1.81080943070688     -1.02896736162236      9.24101055706065
  C   1.02369401056696     -0.01602783853229      7.49588301479752
  H   1.48016478713235     -0.72753948659397      6.79310000734882
  H   0.05817207646821      0.27211792423674      7.05902440585722
  C   1.94823030187031      1.21092115544549      7.57849529547640
  H   2.92195839985446      0.91043138047053      7.98574196696708
  H   2.10608491579012      1.63093113537029      6.57272271326767
  C   1.08587099712657      3.39777510028959      8.00302392268612
  H   1.33215821336657      3.61700437726398      6.95439009228432
  C   0.44322905073055      4.45964281905618      8.73461795840275
  C   -0.14598478832829      4.25193522280569     10.03130112154989
  C   -0.79495170749089      5.35184490476148     10.69038484262419
  C   -1.43411953893166      5.17151594483097     12.07418138755019
  C   -2.60260857944788      4.15624858078443     11.96695103080641
  H   -3.39397727502792      4.54999762667454     11.31487925415902
  H   -3.03719723394746      3.97879244757252     12.96083494476341
  H   -2.26451896063630      3.19962256902455     11.55390202023481
  C   -0.36972344732554      4.67406345593985     13.08763588210056
  H   0.07478604520706      3.72554696910069     12.77156483801959
  H   -0.83524767826371      4.53522447143647     14.07381038508559
  H   0.43491041630617      5.41487391682144     13.19369556770281
  C   -2.01442726849844      6.49311234706033     12.62145238268962
  H   -1.24074341411141      7.26530679444202     12.73481460990168
  H   -2.44793853195637      6.30905206865752     13.61320433664192
  H   -2.81427992178169      6.88895178925772     11.98038587255222
  C   -0.82453964697243      6.57270236883495     10.02089501299764
  H   -1.30685246400462      7.41269707452202     10.51308452582233
  C   -0.27060133934684      6.79977323897494      8.73346076197146
  C   0.35064562908377      5.72119257510875      8.10806277360336
  H   0.79141400173969      5.83352270769872      7.11919896416451
  C   -0.38141408680188      8.18990942569893      8.10025806523491
  C   0.30879481191455      9.22617129079718      9.02493740582537
  H   1.37463621039899      8.99216196898588      9.14888353965795
  H   -0.15308770274724      9.25295639276981     10.02071469487914
  H   0.22389238381707     10.23046034013040      8.58814619723050
  C   -1.88106477872872      8.55659648669191      7.94700984302521
  H   -1.97754310334098      9.55776828458747      7.50540693990052
  H   -2.39794303179526      8.56577257592258      8.91571420357499
  H   -2.39455851877122      7.83956655597785      7.29257508233397
  C   0.28452532734221      8.24990765984549      6.71108118474030
  H   1.35782077272124      8.01902322955322      6.76537535875915
  H   0.18331137449996      9.26207317738106      6.29898898610803
  H   -0.18831046167015      7.55477044262361      6.00303555314074
