38
Coordinates from ORCA-job AJUMUP_0_1_tpss_d4_lanl2dz_631gpol_Co3.opt
  Co  0.43368602755612      7.90839359484302      0.11425529822589
  Cl  -6.56220322811648      9.57573452274369     -0.26370115210346
  Cl  6.63815619582039      5.28066437351843      2.78121571054165
  N   -0.24759287091923      9.09118505427340     -1.18706578664246
  N   2.13331295342890      8.54414383137343     -0.38867405897696
  N   0.29663437433042      9.22703191047158      1.47927868919782
  N   1.19716615199397      9.13135914450249      2.31429911279024
  N   2.01810812408331      9.12850562752095      3.14290259081631
  O   -1.22968829498498      7.14357470511063      0.44526799290102
  O   1.10342014533004      6.51757788002177      1.14955533172230
  C   -2.57532060908161      8.89834004238198     -0.56151454456211
  C   -2.38085996644274      7.73475305821171      0.26572607975196
  C   -3.53118571488249      7.17128086589997      0.89331177497728
  H   -3.38348753710995      6.29076779697447      1.51370745815172
  C   -4.78772912934507      7.72989671026610      0.73242777707948
  H   -5.65267704001292      7.29535043803113      1.22810410747417
  C   -4.95232122349108      8.87885025674308     -0.07511263471330
  C   -3.87129928501741      9.45306421670082     -0.71800987416405
  H   -4.00795080958340     10.33045872325262     -1.34734389678523
  C   -1.49406778547447      9.46464806869782     -1.30429287569160
  H   -1.73402912795041     10.24461479054578     -2.03594547174028
  C   0.79829447234946      9.67523489371117     -2.04188323495480
  H   0.48654933724180     10.64807014487594     -2.44651056033578
  H   0.98991987258567      8.98805825157092     -2.87912078704423
  C   2.04572963084001      9.79344742090926     -1.16729324387698
  H   2.95363235808745      9.95461358416399     -1.76442224259258
  H   1.92396682958553     10.62380311651094     -0.45756676621169
  C   3.29158643481983      8.14077576488794      0.06922181270983
  H   4.18919656589770      8.67760641497627     -0.25695369576963
  C   3.46930164189115      7.05548855632270      0.98039029834821
  C   2.34807679991466      6.30291768954782      1.48447595352656
  C   2.62020060533938      5.24097365608474      2.39708217925752
  H   1.77176772676181      4.68061455768415      2.78156917941532
  C   3.91368012557891      4.93506153561624      2.78133867405321
  H   4.10465832623506      4.12447770504136      3.48054407286983
  C   4.99949457799388      5.68572742284846      2.27252077536164
  C   4.78761677153341      6.72855786405980      1.39124264257777
  H   5.62675657321335      7.30737580910312      1.01047331441542
