38
Coordinates from ORCA-job AJUMUP_0_3_tpss_d4_lanl2dz_631gpol_Co3.opt
  Co  0.53677706156213      8.05366610260293      0.29236027595544
  Cl  -6.50255373840889      9.46892280889152     -0.43674405627687
  Cl  6.79157209803534      4.97914204168446      2.32123951597013
  N   -0.15605782268672      9.06856251502300     -1.16323122912851
  N   2.22876630810499      8.59549881608133     -0.34097712089417
  N   0.48339425097036      9.60475676660843      1.57471290914445
  N   -0.03255993620248      9.36501527407791      2.65721506771024
  N   -0.52116116995337      9.18390319881764      3.70452266714318
  O   -1.12233369291620      7.36032582086939      0.75878477521012
  O   1.22274309434392      6.67863264954244      1.34550140818841
  C   -2.49109929567395      8.88834693575826     -0.55044701750290
  C   -2.28537846609357      7.87198876170578      0.44930768887319
  C   -3.43264344702565      7.36946147737414      1.13161838208464
  H   -3.27161808560791      6.60274109650724      1.88502160204100
  C   -4.69945625176589      7.85795613998945      0.86589559893469
  H   -5.56214102045710      7.47878840407148      1.40840849107020
  C   -4.87868243833999      8.86282539966818     -0.11398066360871
  C   -3.80110588629791      9.36595865094986     -0.81732998362068
  H   -3.94865100457616     10.13108757621788     -1.57696786519786
  C   -1.41190153658887      9.38059398309640     -1.34572713531928
  H   -1.66258202582690     10.05443619864633     -2.17314880141606
  C   0.88692621305853      9.58702332617232     -2.06275512362191
  H   0.56528118764382     10.51854591173139     -2.54838614708202
  H   1.09424771130934      8.83400521545835     -2.83706178051821
  C   2.12446356257511      9.79285489003183     -1.18757476684245
  H   3.03456694915586      9.94396747379655     -1.78461642486047
  H   1.96991726711917     10.65287486065482     -0.52134199832612
  C   3.39498565102835      8.11577852795754      0.00142101839988
  H   4.28781758811048      8.58000720726315     -0.43229502254785
  C   3.59063697076931      7.02178552328958      0.89916475213858
  C   2.47751867624868      6.34782749208566      1.51485536515368
  C   2.76257791485029      5.23592029168228      2.36103240234959
  H   1.91956148142638      4.72642034934140      2.82099668510208
  C   4.06356617812976      4.83031968301498      2.60570590304192
  H   4.26486729692862      3.98945436867986      3.26509418002730
  C   5.14227032405678      5.51311635722251      1.99804541357738
  C   4.91637438503956      6.58650764314627      1.15659795382999
  H   5.75159364795474      7.10398026028687      0.68858308081795
