39
Coordinates from ORCA-job AJUMUP-oxo_0_1_tpss_d4_lanl2dz_631gpol_Co3.opt
  Co  0.53854848098130      7.91354125455925      0.14223346677863
  Cl  -6.44250182541392      9.57864324460415     -0.34222393254654
  Cl  6.70057392880837      4.81277002234456      2.11830825181949
  N   -0.14149962505314      9.03418436050726     -1.24982229616100
  N   2.22980633099085      8.69842291029416     -0.27802151513990
  N   0.18321135266120      9.46132927564830      1.34121917153480
  N   -0.00462576445726      9.16212086953577      2.51269290143354
  N   -0.18866949492455      8.92933948456984      3.63929857173966
  O   -1.13465347810206      7.19234023590511      0.63044694778402
  O   1.20771122760461      6.90290733920637      1.58758391095882
  O   0.88700022906735      6.64892898971030     -0.96577427953914
  C   -2.46158382027127      8.84503890665227     -0.58283695422757
  C   -2.26916516026417      7.77843011255486      0.36832318990410
  C   -3.42118745779336      7.30596262457819      1.06976466262463
  H   -3.27235982994556      6.50482645860547      1.78896353156960
  C   -4.67417973046440      7.85011893134928      0.85388338034754
  H   -5.53645000504666      7.48173218171538      1.40455924644709
  C   -4.83913628531396      8.89669802905436     -0.08274183507928
  C   -3.75668087592501      9.38314799879253     -0.79249570793620
  H   -3.89169816307428     10.18489413863008     -1.51587594449228
  C   -1.38921294743643      9.36664348540584     -1.37542922037234
  H   -1.64880583974768     10.09950982936608     -2.14802993087796
  C   0.92934299139156      9.58613615882239     -2.07792000243907
  H   0.59444327762691     10.48374372259863     -2.61489278056409
  H   1.24142036733540      8.81794680902538     -2.79912927179843
  C   2.08266893785841      9.89217139895286     -1.10863993760683
  H   3.01719915419813     10.12870945972139     -1.63533934547766
  H   1.79889825777671     10.72651008758884     -0.45331659853196
  C   3.37501963369330      8.17563549824103      0.03883271835285
  H   4.28114463407948      8.64873464542115     -0.35660525662410
  C   3.54133765491841      7.03661564145279      0.89026572771625
  C   2.44151238753030      6.47795304182061      1.63508163984959
  C   2.72931409204134      5.40575436778797      2.53205100482485
  H   1.89964122881985      4.99222349240081      3.09926805908429
  C   4.01257247575368      4.90745102942662      2.67413638106416
  H   4.21070428610488      4.08395072398676      3.35606070719077
  C   5.07506733024553      5.46481367461447      1.92654085176958
  C   4.84937533861071      6.51614774640387      1.05672944987796
  H   5.67399670513542      6.94997181814409      0.49455103674206
