44
Coordinates from ORCA-job AJUMUP-CH3OH_0_3_tpss_d4_lanl2dz_631gpol_Co3.opt
  Co  0.74695143772894      8.13176132637797      0.28014450288686
  Cl  -6.24237883994264      9.60495768026523     -0.68108968723605
  Cl  6.94736883978097      5.55220988992150      3.05862715781071
  N   0.13346102341189      9.30451683990642     -1.09335927334538
  N   2.45256173337885      8.87514449341340     -0.06035750127191
  N   0.44672544313598      9.48156500894286      1.75483556155096
  N   -0.14508962723392      9.06349896128400      2.73856339551979
  N   -0.71273877213693      8.70122358050546      3.69591260262993
  O   -0.92528398595662      7.32921249550920      0.51678093119109
  O   1.41849611237902      6.67720886232237      1.29589059402310
  O   1.17724137552057      6.41993010129773     -1.41078666153729
  C   -2.22755202271492      9.02516446009151     -0.65194818260839
  C   -2.07134713632337      7.89248659165554      0.22458354706051
  C   -3.25163309603787      7.32323706626456      0.78591193066822
  H   -3.12962270253950      6.47465717818621      1.45431888902024
  C   -4.50514218476192      7.84475507317112      0.51571727357728
  H   -5.39286455484554      7.40863778849985      0.96762482718965
  C   -4.63604465798593      8.95715119138572     -0.34678119089882
  C   -3.52305719815214      9.53502453878131     -0.92758142355885
  H   -3.63186034216851     10.38701456553881     -1.59599875835633
  C   -1.11080648299330      9.61515805177301     -1.32537611646342
  H   -1.32524087681474     10.36879817935009     -2.09254686435610
  C   1.23666706125498      9.89960308181126     -1.85651357980391
  H   0.93038027076236     10.83639925603029     -2.34305421935646
  H   1.55917536051005      9.17960133782296     -2.62169822387860
  C   2.36383152716417     10.11560393033670     -0.84380404807737
  H   3.32049597589324     10.35219730294899     -1.33006147641158
  H   2.09059034060971     10.92556271962323     -0.15320838970168
  C   3.59372616725134      8.45993029284181      0.41089266342234
  H   4.49546100598055      9.02222710394355      0.14224475310426
  C   3.76791070388016      7.32310441406654      1.26568358533636
  C   2.66680211350610      6.48655785826524      1.66063223852276
  C   2.95435423176814      5.36261726819727      2.48657000949512
  H   2.11971437680626      4.73458208117340      2.78903903383501
  C   4.24404836467119      5.08534973268093      2.91154957600680
  H   4.44133771832664      4.23015301619543      3.55359321329406
  C   5.31053362501357      5.92028270383818      2.51323849748761
  C   5.08229336086326      7.01753005000186      1.70258007892284
  H   5.90935481613381      7.65574782750890      1.39739168946455
  C   0.05095709370240      5.97837031012520     -2.19112294889179
  H   -0.87019411852338      5.97791049280421     -1.59555806585802
  H   -0.04960266585802      6.68932446923359     -3.01739436141764
  H   0.23276689665782      4.97519537605658     -2.60364231348032
  H   1.20512228889713      5.88699545004903     -0.58348326551019
