56
Coordinates from ORCA-job AQIXAA-OH_2_4_tpss_d4_lanl2dz_631gpol_Co3.opt
  C   9.73611975334613     -0.86264807465163     10.89922835074872
  H   10.52415462886584     -0.35119355478714     11.46756398804327
  H   10.14414241363389     -1.77405665486799     10.46001679859448
  C   8.54530164088837     -1.16686878216770     11.80828628700731
  H   8.73239132903425     -2.08871128778680     12.37026008779801
  H   8.38003208018733     -0.34686122046699     12.52021608117880
  C   6.15711102023649     -1.59185557350179     11.53178021803912
  C   4.89256186738682     -1.60589629517873     10.69729905978222
  H   4.64877281299264     -0.55663137547877     10.45855386315311
  H   4.07449640297389     -1.98546444875625     11.31915415575899
  C   4.93227028976000     -2.44880008614580      9.39485657949743
  C   6.09812750205189     -2.30778041683777      7.09876197992568
  H   5.16811378479121     -2.54209374822451      6.56408841609288
  H   6.64088908289506     -3.23385779367531      7.29213275693018
  C   6.94213694483972     -1.33068580929898      6.27419476424086
  H   7.53236195718287     -1.88919747208719      5.53941697963935
  H   6.29930244879190     -0.61845922598435      5.73934276304643
  C   8.71217184141054      0.30274369140309      6.69359849304437
  C   9.50455393650464      1.19538685692924      7.63487454781442
  H   8.80782653596611      1.93931576868748      8.05566637164975
  H   10.23277911760006      1.75854185790360      7.04078276621699
  C   10.28024529090516      0.50260284914001      8.78499248114445
  C   5.97939181666791     -1.88129606711243     12.99696069567322
  H   5.64575063768952     -2.92562956992386     13.10368157387653
  H   5.16867761842454     -1.25329346780018     13.39314425049227
  H   6.87684502293379     -1.73411241323294     13.60051375662730
  C   5.48874456242665     -3.85387320472473      9.65370971826986
  H   5.43443057952931     -4.48264986374166      8.75768842216120
  H   4.87326189348015     -4.33669945004137     10.42295107530197
  H   6.52916490592729     -3.82422253412122      9.99499803318387
  C   3.49294890346594     -2.51710179774458      8.82840835036587
  H   3.07928506387202     -1.51507217907074      8.64736634774952
  H   2.84240105777053     -3.02902814640435      9.54707852764115
  H   3.46564149818800     -3.08944736448961      7.89393310601257
  C   8.97478117285435      0.50018838408522      5.22382531981237
  H   10.00513348151688      0.17435604714719      5.01180206836056
  H   8.92996932401974      1.57198016742491      4.98458468065487
  H   8.29160024460317     -0.04243507319112      4.56761925330829
  C   11.13960457414221      1.58114342985689      9.49088132474727
  H   10.52371717390179      2.41317219957475      9.86043553634066
  H   11.87199104414411      1.98752369374145      8.78351085107401
  H   11.69633046794048      1.14975540574297     10.33081889478799
  C   11.15930661970329     -0.63594436397520      8.25432179270955
  H   11.77969409851593     -1.06942186805972      9.04695328531999
  H   11.84188229745307     -0.22733128792133      7.49885592452244
  H   10.56360041813472     -1.43558860512543      7.80113926005839
  H   8.82259945534961      0.85052333935979     10.20035330037453
  H   5.28029917843369     -0.79265015087078      8.23603683982899
  N   9.25309537173818      0.01039041890463      9.78626493710458
  N   7.30203321766702     -1.31000377894446     10.99105173781657
  N   5.78494853758259     -1.67194791404315      8.41400065611844
  N   7.84578658377051     -0.53608382081991      7.16142948258223
  Cl  8.65040258302128     -2.89322919783994      8.75003636787078
  O   6.64543096297662      0.81531003683981      9.26290307393177
  Co  7.51778340391494     -0.82140050841941      9.10395017389103
  H   6.40226354599463      1.56116030077484      8.67281359208162
