55
Coordinates from ORCA-job AQIXAA-oxo_2_5_tpss_d4_lanl2dz_631gpol_Co3.opt
  C   9.77820956062104     -0.72916348846818     10.99913776541517
  H   10.50050951596812     -0.22951691667345     11.66308428179167
  H   10.24558352356329     -1.61342506186440     10.56531232441491
  C   8.53928261206915     -1.11177061318272     11.83652019435153
  H   8.77716401268946     -2.02607255928629     12.39213119208333
  H   8.31058678738115     -0.31443844373176     12.55552496295556
  C   6.18498784308518     -1.63579876181699     11.51466385266625
  C   4.91067343699479     -1.61890868389338     10.68125307980270
  H   4.68794733989535     -0.56287991909416     10.45771442251905
  H   4.09469731428718     -1.98220830132566     11.31582709058558
  C   4.85716041466599     -2.44364504321868      9.35872922194064
  C   6.03091235015521     -2.27837912080315      7.04282103232049
  H   5.15668417123510     -2.48277006117111      6.40465363961214
  H   6.53206703844008     -3.21821517836841      7.27459998094076
  C   6.96799586042824     -1.32029329765145      6.27644592680052
  H   7.53147316989983     -1.91500716606487      5.54844795692642
  H   6.37494158289952     -0.57268638733764      5.73387168895142
  C   8.75318653620537      0.26953345938471      6.71570341467282
  C   9.54156940253811      1.17907194318351      7.64772066432139
  H   8.82618011445474      1.90866465008243      8.06188074747762
  H   10.24749705438092      1.75071044894565      7.03489702117657
  C   10.36332652741239      0.54688531828240      8.81172265659172
  C   5.99260076368542     -1.95810135058241     12.97233327093650
  H   5.59667789404323     -2.98130012129387     13.05760299268672
  H   5.22659707560842     -1.29036686599605     13.39371354498615
  H   6.89981700892056     -1.88123509789081     13.57472899568992
  C   5.40341952487884     -3.86029218020813      9.53430438450908
  H   5.23602178644948     -4.47489386566920      8.64229771403964
  H   4.87266460866306     -4.34164245487821     10.36441487584540
  H   6.47777857207510     -3.85949418699707      9.76312226954369
  C   3.36024047683247     -2.49472240918680      8.90166113549769
  H   2.93378610400718     -1.48702175800563      8.81806086740135
  H   2.78566063880791     -3.05909546488011      9.64579957847936
  H   3.27281491034548     -3.00907469254455      7.93804763620100
  C   8.98048232184505      0.51035694870778      5.24721976803234
  H   10.03501338360131      0.29961267235867      5.01414200019813
  H   8.81924374971760      1.57603115172219      5.02620805660766
  H   8.34877737426673     -0.08715054689289      4.58714139690755
  C   11.28417002671582      1.66580468736434      9.39680337966555
  H   10.70042657834469      2.54540807959191      9.69760423990411
  H   12.00522858879390      1.96957121201451      8.62866034584934
  H   11.84314293344782      1.28837955434553     10.26054653566272
  C   11.20328550349037     -0.64121997425719      8.34286548992529
  H   11.86606022345751     -1.00906207289002      9.13443464506241
  H   11.84051925133149     -0.31486217474662      7.51210724919127
  H   10.57857118636674     -1.47458249631001      7.99312567147461
  H   8.93937601189238      1.02679752893668     10.24911062173630
  H   5.12764174079529     -0.76213838623791      8.16036273932371
  N   9.39890710498337      0.17925458912273      9.89392624895668
  N   7.32895721898914     -1.31668020725985     10.99690825918819
  N   5.58793901742803     -1.66761004504192      8.31283978097763
  N   7.89753659747605     -0.58729204087591      7.17726790912051
  Cl  8.62008129288257     -2.85334501947175      8.87542656905252
  O   6.79518235923676      0.56555640627021      9.25531768723396
  Co  7.58084200134949     -0.88227623424400      9.09693102179410
