60
Coordinates from ORCA-job AQIXAA-CH3OH_2_5_tpss_d4_lanl2dz_631gpol_Co3.opt
  C   9.89482674131439     -0.92919977275533     10.93188308218404
  H   10.65894009828179     -0.36298645867751     11.47958320577660
  H   10.31422600418164     -1.89625766213598     10.64057346135954
  C   8.66215201887652     -1.11274838811779     11.83130906088607
  H   8.86571567030097     -1.89658830883046     12.57104076467748
  H   8.45152657982964     -0.17848375226584     12.37224589548773
  C   6.32190234531601     -1.68140667175627     11.56902682103609
  C   5.05772086695930     -1.89567615881306     10.75670503930665
  H   4.61006250866179     -0.89462196543307     10.61861434585121
  H   4.34779216831470     -2.43663305484603     11.39541800650647
  C   5.10165265994505     -2.63807197421702      9.39944529009376
  C   6.10724657058818     -2.29347973591234      7.05544798724740
  H   5.13469294031862     -2.43419412072816      6.56697846698058
  H   6.62559359376480     -3.25559311366225      7.09159213004366
  C   6.92567593451176     -1.26188024719685      6.26205111366431
  H   7.35631957507071     -1.74626793676227      5.37737098405415
  H   6.27367000229418     -0.44497895874257      5.92001854970711
  C   8.84491688175945      0.17374334166757      6.63589037749225
  C   9.83677105722003      0.90524713491629      7.52563043284108
  H   9.30442855525206      1.79060488421276      7.91909222210868
  H   10.62336247084037      1.31144089525887      6.87785923637504
  C   10.54361618877055      0.17275474148406      8.69380201208300
  C   6.11923444287476     -1.69098885398231     13.06310233801649
  H   6.16235707723206     -2.73665331208359     13.41072867898873
  H   5.12098512628378     -1.31476927903398     13.31743558942393
  H   6.87289251230503     -1.12179586458348     13.61457668811372
  C   5.66664476409146     -4.05433333903800      9.57998928184419
  H   5.72417788124620     -4.59446201816993      8.62805072922346
  H   4.99136707826423     -4.62067804705911     10.23273016595672
  H   6.66232896641828     -4.04520732716688     10.03618465016561
  C   3.65549566242451     -2.70284142419837      8.85143570736256
  H   3.25685086122199     -1.69897613224115      8.64827526648235
  H   3.00159611908644     -3.18621439518054      9.58706390356343
  H   3.60678488947115     -3.29751366446771      7.93205554872018
  C   8.88844543247429      0.57084952844091      5.18286247902530
  H   9.71090393231435      0.01728119638231      4.69984703809958
  H   9.13087516106275      1.63666671904044      5.08589424659642
  H   7.96714054691616      0.35822275953665      4.63433270753048
  C   11.50854735507006      1.17891721921409      9.36499722936711
  H   10.96550634514686      2.03655913711927      9.78643729500178
  H   12.22490850680245      1.55860784832936      8.62669820154465
  H   12.08627896404032      0.69825093655567     10.16272874199849
  C   11.31919221947250     -1.04647429200204      8.17649991140800
  H   11.83170316006322     -1.57585683711867      8.98797876330749
  H   12.09046142342644     -0.70152897997773      7.47715556824814
  H   10.66996410483928     -1.75676974632805      7.65314353250611
  H   8.95729719182185      0.63147332504036      9.94128138596572
  H   5.57188843374272     -0.85267035344501      8.45537047523272
  N   9.47301330933279     -0.22245074708931      9.68618519248746
  N   7.47400438455251     -1.46136646243119     11.00939991853620
  N   5.94989414084522     -1.81131233550602      8.45893283474356
  N   7.99299561814640     -0.68119378068679      7.11954166787419
  Cl  8.91207834535432     -3.41580087136459      8.74511539353819
  O   6.76302790561047      0.88610632915582      9.26062709057117
  Co  7.93864725853452     -1.47900635276556      9.01509509194177
  C   6.18534667654590      1.71335379352829     10.31279088896147
  H   6.74867930988386      2.64680726757149     10.42877014678621
  H   5.13316079233275      1.93563268702962     10.09897390921658
  H   6.25915927526323      1.12556496469937     11.23059791317425
  H   6.76458339311081      1.40840798758978      8.43382534271087
