60
Coordinates from ORCA-job AQIXAA-CH3OH_2_1_tpss_d4_lanl2dz_631gpol_Co3.opt
  C   9.89859545123765     -0.98262132170856     10.85031579054062
  H   10.68706475671887     -0.45043931199946     11.39565781385639
  H   10.29409383684908     -1.91848251888008     10.45617576030346
  C   8.70475680016155     -1.23198923477883     11.76859247821472
  H   8.86835054511315     -2.14407215743774     12.35181084568226
  H   8.57344318787184     -0.39308749936654     12.46690098681885
  C   6.33919403384697     -1.67099220981001     11.54592773964346
  C   5.04235386519165     -1.74458396530396     10.76702382158428
  H   4.68223313644368     -0.71645707459903     10.59555725192183
  H   4.28818377005233     -2.21667298408417     11.40707135913468
  C   5.07310221638171     -2.52060485083703      9.43396853158264
  C   6.18007951964516     -2.34320464587620      7.14135121027498
  H   5.22497365379400     -2.53252485587077      6.63747831088892
  H   6.69986614798007     -3.28660019014587      7.30599408666244
  C   7.03257798266952     -1.38843266494900      6.30823385646263
  H   7.59768439241142     -1.95426610198627      5.55997893322186
  H   6.39904557420499     -0.65900067252570      5.78399421570843
  C   8.83706870619707      0.18150581360884      6.67477014980272
  C   9.75088416726829      1.00550910551606      7.55876632611531
  H   9.16721762546397      1.83728067309693      7.98811374054358
  H   10.51009343528228      1.47254529284167      6.92131981519457
  C   10.48469703556986      0.24918677430505      8.68843812932116
  C   6.22713144176398     -1.96609112795326     13.01906327857138
  H   6.13238066244450     -3.05718190913453     13.14581150372321
  H   5.30475305550687     -1.52372868944663     13.41710892166017
  H   7.07489452915648     -1.62303298913781     13.61627501990649
  C   5.59138106172202     -3.94789300658046      9.65264748175768
  H   5.57694555631765     -4.53282523390859      8.72649272510336
  H   4.91953521478076     -4.44979706798208     10.36037407729384
  H   6.60949702325734     -3.95988706559616     10.05206288621684
  C   3.63761971962775     -2.54753712099261      8.86206702209378
  H   3.25807794054151     -1.53440360860943      8.66194656112891
  H   2.96352391072970     -3.02072025277906      9.58571737729711
  H   3.58462193201074     -3.13508831921837      7.93864716109139
  C   9.00672890174003      0.38346277870626      5.19244545870667
  H   9.92862377992501     -0.13434074060193      4.88049878165321
  H   9.15894170960685      1.44884260924103      4.97607315779755
  H   8.18009143360374      0.00850146843324      4.58547786255180
  C   11.43985289284905      1.24590537546734      9.38388182629916
  H   10.89499580591415      2.09722328885302      9.81758379237824
  H   12.15419965573474      1.64166360253764      8.65228864858776
  H   12.02167838692154      0.75732047357951     10.17342486179225
  C   11.26653554797232     -0.94643169669320      8.13135011852742
  H   11.84200301449371     -1.45206358448259      8.91471128127637
  H   11.98762590755527     -0.57289118221770      7.39330100604556
  H   10.61362174048223     -1.68377112332690      7.65480118289663
  H   9.05168344425792      0.71901799240230     10.06727597558858
  H   5.42537683763423     -0.84268060923663      8.32339192991615
  N   9.41671268116450     -0.16861822356155      9.69092757003996
  N   7.45413259970395     -1.35554342219081     10.95976723530856
  N   5.95254231732147     -1.71445043229594      8.48281401064627
  N   7.96795724827405     -0.63252100818797      7.19582838520903
  Cl  8.67898799022263     -2.97852677496273      8.83737856059929
  O   6.91260486957212      0.90710613736181      9.21825814506213
  Co  7.70684385711159     -0.98021764943522      9.08159025885222
  C   6.17364598287857      1.62145786863976     10.26437847492640
  H   6.48233753915007      2.67129175010712     10.25768805659085
  H   5.09502388168920      1.53729839468271     10.09822749222557
  H   6.45760339021857      1.14931543205077     11.20538492995931
  H   6.73495669578706      1.30840026726041      8.34388582723793
