54
Coordinates from ORCA-job AQIXAA_2_3_tpss_d4_lanl2dz_631gpol_Co3.opt
  C   9.71700274085057     -0.83352598431457     10.93401998487871
  H   10.49513713902795     -0.28960966840030     11.48207685876301
  H   10.12059527220033     -1.77255966030416     10.55180412766597
  C   8.50484355211677     -1.07100418861088     11.82785858374899
  H   8.66316777316231     -1.95568143347768     12.45426602930238
  H   8.32645205084773     -0.20493675076737     12.47962257967400
  C   6.14054377184663     -1.50776917798083     11.51467544366471
  C   4.88352532490355     -1.64500149181804     10.68135270170797
  H   4.51190117023463     -0.62643839632427     10.46892516548185
  H   4.11368149885138     -2.10992259907764     11.30827163844398
  C   4.97902080633525     -2.46589615834430      9.37645839355437
  C   6.15316930822000     -2.29279960096412      7.09395124670134
  H   5.21472670205266     -2.53611461084928      6.58237825219626
  H   6.72971988042099     -3.20379311747639      7.26301148110446
  C   6.94928044043840     -1.27129000612986      6.28961911431078
  H   7.52623487957578     -1.77199995047102      5.50448316555465
  H   6.27953371183318     -0.53763549643414      5.82066451861233
  C   8.67173432099981      0.37506699859125      6.73979844505332
  C   9.57129709145541      1.18745135241274      7.64829907662440
  H   8.96435667718560      2.01154833101518      8.06453252444135
  H   10.32871718826480      1.67357079087349      7.02213456945727
  C   10.31072266450699      0.43967172641015      8.77873578452046
  C   5.94476147419856     -1.64849802924707     12.99961686880574
  H   5.83262369264889     -2.72170493447773     13.22801630710547
  H   5.00512256705178     -1.16565590258351     13.29737228080199
  H   6.76236761519076     -1.25170261511874     13.60500843232800
  C   5.52881119705213     -3.87163355757395      9.64602046247136
  H   5.57303444403078     -4.47252800302267      8.73099966839408
  H   4.84758370527438     -4.38378628697363     10.33665577319189
  H   6.52978739910189     -3.84723438831062     10.09067657048032
  C   3.56582973274270     -2.53671596226282      8.75335809141484
  H   3.17461854477685     -1.53703614162638      8.51536195924731
  H   2.87784595357878     -3.00541235971518      9.46672404081140
  H   3.55740322144878     -3.14960294741595      7.84519736286819
  C   8.75534119746273      0.72420964735788      5.27890743751244
  H   9.68284814271522      0.28462700586918      4.87539199680809
  H   8.84995345713596      1.81180985268466      5.16381178697900
  H   7.91605145845074      0.36918155716150      4.67753119094415
  C   11.22206248754972      1.45451821719549      9.50661162459477
  H   10.64385310127166      2.28172009801218      9.94245515770942
  H   11.93451140288474      1.88189609619411      8.79124264994916
  H   11.80689449674413      0.97113448788487     10.29694467909075
  C   11.12907856226737     -0.73353368185188      8.22684603688855
  H   11.70288278261357     -1.23166772813075      9.01621695487261
  H   11.85138840583864     -0.34456148250794      7.49865606433300
  H   10.49726380934712     -1.48087000989472      7.73442223886011
  H   8.80834916218800      0.82598500314179     10.12781103629440
  H   5.37966372908101     -0.78820026679695      8.26318678039466
  N   9.24131567811579     -0.03497556356046      9.75536410083114
  N   7.29636671515885     -1.26647447100209     10.96704941412433
  N   5.87991664387949     -1.67561426563585      8.43490416722542
  N   7.87427414821995     -0.53909717356067      7.21139078729787
  Cl  8.74441759002141     -3.10447897684244      8.84661038569092
  Co  7.68031351662655     -1.07972812494755      9.06829800621557
