56
Coordinates from ORCA-job AQIXAA-OH_2_2_tpss_d4_lanl2dz_631gpol_Co3.opt
  C   9.75479707339886     -0.87411942325773     10.89721727014830
  H   10.50582006609953     -0.31739481461417     11.47123051857873
  H   10.21536438870448     -1.76254169590175     10.46505696298307
  C   8.56566307950610     -1.23236607870895     11.78998620638825
  H   8.74582456396500     -2.19137937233404     12.28812299641676
  H   8.41138527828944     -0.45962083008829     12.55389071893536
  C   6.17189770365809     -1.54903108875025     11.51185561121940
  C   4.91227266350419     -1.53671887107490     10.67379580960341
  H   4.69954648467226     -0.48755061333791     10.40883303468249
  H   4.07807675185545     -1.87955963669471     11.29578978866439
  C   4.94709567357475     -2.40984979586574      9.39525778061927
  C   6.11851056160094     -2.33185537606592      7.09929731787666
  H   5.18101385015219     -2.52732526108898      6.56479527730522
  H   6.61940176743166     -3.27696153366709      7.30850900508092
  C   7.01226921994153     -1.39581262953631      6.27803869285900
  H   7.66230006337294     -1.98310627490321      5.62043238386785
  H   6.40450520728813     -0.72216114917251      5.65986683353962
  C   8.67228399685731      0.33158375221915      6.72507260781841
  C   9.44774981183708      1.22364792397182      7.67339399908322
  H   8.74460465259124      1.93762129887740      8.13310398990897
  H   10.15415678869295      1.81993802517899      7.08544327153822
  C   10.25069625455245      0.50290664766922      8.78575444217452
  C   5.98423419039436     -1.82724945401125     12.97877317068281
  H   5.60157325966497     -2.85338572231953     13.09163093094350
  H   5.20711659246137     -1.15758588960430     13.37427832015973
  H   6.88853328328699     -1.72243661812650     13.58078383822480
  C   5.47117502657243     -3.82082129861362      9.68607234637369
  H   5.42070085632690     -4.46414208135211      8.80028921485057
  H   4.83059427039354     -4.27694703772277     10.45119313982544
  H   6.50359819952249     -3.80865294313396     10.05123517862062
  C   3.51919776176737     -2.46163577198216      8.80471849578862
  H   3.12923225204788     -1.45573356337632      8.59285011378716
  H   2.84647827262615     -2.93805044069867      9.52748537903611
  H   3.48800862847970     -3.05906230622090      7.88631034761633
  C   8.91307074086767      0.55660611332804      5.25762678340415
  H   9.95437463860595      0.27611980172923      5.03363038685507
  H   8.82570945139836      1.62935711896766      5.03404334899478
  H   8.25017300086826     -0.00430331877462      4.59619291181423
  C   11.11338203878566      1.56458764167842      9.50981903393089
  H   10.49670191658825      2.37616612008083      9.92048055988791
  H   11.82202280653367      2.00303178161694      8.79720085800986
  H   11.69915470338449      1.11563879836772     10.31983374411895
  C   11.12356837434727     -0.61833989879466      8.21007407144028
  H   11.76547070921715     -1.06463610035104      8.97786956353421
  H   11.78475653964438     -0.19227369811430      7.44530102817495
  H   10.51987776409261     -1.41206069232519      7.75595945935946
  H   8.77267818990784      0.79869286024463     10.19119417184707
  H   5.31819886171586     -0.79378473278104      8.20497012021518
  N   9.23539052132157     -0.02760995802285      9.78281000389529
  N   7.32342529231913     -1.31518062715964     10.96840151115602
  N   5.83266643092419     -1.66296210353003      8.40561645129075
  N   7.84536930874289     -0.55430565939816      7.18937316082867
  Cl  8.61139776554152     -2.85667924775483      8.83059814333907
  O   6.78789212539836      0.70127725969960      9.36373592594855
  Co  7.56417621891540     -0.89441044426075      9.08255104561779
  H   6.41952410578854      1.07699890986203      8.53144272113509
