54
Coordinates from ORCA-job AQIXAA_2_5_tpss_d4_lanl2dz_631gpol_Co3.opt
  C   9.67622202487360     -0.72240485527851     11.01395622220132
  H   10.41617494232755     -0.13344596423821     11.56993303834247
  H   10.11183182008394     -1.69449486613790     10.76444233350698
  C   8.40689382514186     -0.87868344195929     11.85782366484475
  H   8.57412262350924     -1.61985490801965     12.64893545137788
  H   8.15418394243197      0.07981436145885     12.33461804302728
  C   6.10257110005943     -1.50723378975527     11.52010106017954
  C   4.87548306127168     -1.83839080484282     10.69697792843845
  H   4.34145265906403     -0.88024272330453     10.55133143548737
  H   4.20709421222922     -2.43091175565512     11.33565433737206
  C   5.00301478448717     -2.58528995712178      9.35090392888454
  C   6.07666555689995     -2.18478663838330      7.03989068345587
  H   5.12610898729770     -2.38167744013799      6.52882085863182
  H   6.65833871765147     -3.11095052245825      7.07598633955559
  C   6.83854641594305     -1.07824098213992      6.30447719404761
  H   7.27718747482052     -1.47746513283606      5.38181381952039
  H   6.14896730225822     -0.26544907239726      6.03272806083440
  C   8.68908096574266      0.40567629783213      6.74034049767877
  C   9.72913380194949      1.09031104139207      7.60208351204172
  H   9.25612327084980      2.02381816029096      7.96128309824249
  H   10.53206237181274      1.42867375771857      6.93390912302008
  C   10.39744472047797      0.34617013948823      8.77905687311418
  C   5.85835168094244     -1.40995862257957     13.00470798018880
  H   6.11208594792701     -2.38136295703789     13.46285673755263
  H   4.80049347655397     -1.21844419431172     13.21348428863265
  H   6.46841248272433     -0.64376831646901     13.49442553513373
  C   5.61929920850301     -3.97616272592202      9.55662179764256
  H   5.75426812730698     -4.50684446938340      8.60693328859047
  H   4.93340828935396     -4.57551582476519     10.16725074589912
  H   6.58541222104378     -3.93038364029646     10.07125397100366
  C   3.58634434606793     -2.70970586163540      8.74049158281146
  H   3.15825811233309     -1.72429463676535      8.50847073152522
  H   2.92109237888008     -3.20733453127433      9.45624632362019
  H   3.59729331819572     -3.31824018255701      7.82907167307072
  C   8.61303446190553      0.91686854505865      5.32386929968022
  H   9.23495866599317      0.26575669944246      4.68580330693596
  H   9.02616297080920      1.92866844971569      5.25383935549812
  H   7.59831707609731      0.91193099003037      4.91278876598298
  C   11.35096371853690      1.33569603207711      9.49063071227005
  H   10.80121062891852      2.17725370804994      9.93517869021415
  H   12.06591780297938      1.74340091044371      8.76592513100416
  H   11.93100229357069      0.83397777853490     10.27352666241972
  C   11.17771506198492     -0.87746896059081      8.27763661578346
  H   11.62660069539298     -1.44055839037327      9.10408707913660
  H   11.99854237616463     -0.52965995696921      7.63896342446382
  H   10.55149617504008     -1.55846098811583      7.69066943798932
  H   8.78426799910030      0.81541939190822      9.97773517772419
  H   5.41523960977738     -0.79433983140946      8.40902415347146
  N   9.28947879836394     -0.04998653269060      9.73513663684465
  N   7.27263667430175     -1.29024351644478     10.98743794891615
  N   5.86063347025318     -1.72357758338316      8.44553852484117
  N   7.89753682621094     -0.52661982197007      7.19224799830073
  Cl  8.89405340310301     -3.35050520872303      8.81805102084886
  Co  7.86870712047976     -1.44477665510833      9.03062789819651
