32
Coordinates from ORCA-job CLENCO-CH3OH_2_3_tpss_d4_lanl2dz_631gpol_Co3.opt
  Co  2.37674360418517      2.79346420663556      0.78024581825677
  Cl  1.10903670683163      4.53085447129973      0.24143649329067
  N   0.81489560245915      1.39387340297553      0.11349058300891
  C   0.82134591604568      1.46651991327507     -1.38686102734988
  C   2.27652105191828      1.49082018557833     -1.84142162029476
  N   2.95467304973839      2.63905219964376     -1.14345377378157
  N   1.88302024921177      3.04141293351707      2.68788603356412
  C   2.29321857693213      1.84993688535782      3.50402836228294
  C   3.67513161457536      1.45025585455709      3.01063988304034
  N   3.58214324938282      1.31750834093614      1.50610249494642
  O   4.00883718176400      4.28103941328532      1.32425945297936
  H   -0.09015136301525      1.73016888559043      0.46391274372050
  H   0.88227050396770      0.41398230783603      0.41475838153197
  H   0.31123790158360      2.39297176701256     -1.67200868766692
  H   0.28638996162058      0.61910467231384     -1.83126607124045
  H   2.80247725620482      0.57043140257849     -1.56020029673212
  H   2.35588630126348      1.61631463608374     -2.92824213010124
  H   2.66381419725671      3.52737637933888     -1.57541840449882
  H   3.97467807425218      2.58355720084596     -1.25516318753674
  H   0.89185848857650      3.28327494627458      2.81712626553022
  H   2.42892474798127      3.87282573340566      2.95768205770394
  H   1.55615648192143      1.05627335195623      3.33564505163600
  H   2.29679781019622      2.09965969679775      4.57234969687770
  H   4.40827016606189      2.23514918890251      3.22288995572042
  H   4.02110566777711      0.51214180859433      3.45974565630638
  H   4.52572684285894      1.32921756900090      1.09798977397487
  H   3.19011537717877      0.39948287083798      1.26163527129234
  C   5.46042258310701      4.34701584812673      1.11820630754750
  H   5.69778381707652      4.47221843563344      0.05573202012460
  H   5.86630570394141      5.18069134470802      1.69927630082983
  H   5.87203901292099      3.40784716492566      1.49630489156604
  H   3.62517366422359      5.14404698217471      1.05190170347060
