44
Coordinates from ORCA-job BOXNOT-CH3OH_1_2_tpss_d4_lanl2dz_631gpol_Fe3.opt
  Fe  10.91262738006243      8.98815848038547      7.27130946297307
  Cl  11.09962423646181     11.21518667317104      7.46474015834415
  Cl  9.26803063088162      9.04359073636272      5.70152657125278
  O   10.61227878013666      7.00386591276113      7.19482243315182
  N   12.44532599559754      8.95519170523409      6.07871591235203
  N   12.24862257619211      8.82535087217942      8.58254634049434
  N   9.72404815444272      9.00532617594533      8.82854198317427
  N   11.81285112083739      8.81883361396880      9.86848656450566
  C   13.64335026749310      8.89882996123834      6.75585399953054
  C   14.86565308877892      8.93904657502655      6.07184588142916
  H   15.79814782537720      8.89400337252368      6.62892902923613
  C   14.85463895639886      9.05324581205322      4.67860181513157
  H   15.79102975646756      9.09514350630974      4.12725064241250
  C   13.62866068474543      9.12624405491279      4.00442931389738
  H   13.58375775533518      9.23151647255408      2.92398454816876
  C   12.43859181378039      9.07559140177960      4.73769133902743
  H   11.45557758487795      9.14595994329862      4.27931287207540
  C   13.50134450638623      8.82282038349741      8.19274896247089
  H   14.33728150814391      8.81161062249110      8.88743272354700
  C   10.42030332411793      8.95311843252279      9.99504795912488
  C   9.79597315109598      9.02952947715612     11.24444347023017
  H   10.38734463928235      8.98517603543756     12.15379695879983
  C   8.40786421744873      9.17251020633516     11.26941475343837
  H   7.89272727272088      9.23925179558846     12.22489523661215
  C   7.68742352803851      9.23720246807356     10.06737056148739
  H   6.60849186570148      9.36023824265887     10.05895480428907
  C   8.38058008673202      9.15326090591839      8.86294446757720
  H   7.90082432693832      9.21964859977474      7.89063854983005
  C   12.73324983172246      9.07569451489121     10.95120816232076
  C   13.22410400651850      8.00269897569886     11.70493279446935
  H   12.90073054991959      6.98778583650691     11.48257625027605
  C   14.12080671003535      8.27144529611802     12.74707885830336
  H   14.50887554194555      7.45346308969972     13.34992366752842
  C   14.51363608939147      9.59124130207841     13.01165989632529
  H   15.20966961744867      9.79413564003502     13.82286757718980
  C   14.01534301898405     10.65327681286499     12.24113245820661
  H   14.32150747805092     11.67507159348918     12.45435459148431
  C   13.11616146264902     10.40267828995897     11.19904843909542
  H   12.71110745514277     11.20644536750780     10.58653637015076
  C   11.60067632770506      6.06311023460143      6.68408531582209
  H   11.84320914558624      6.28670259743196      5.63987939700162
  H   12.48351509022005      6.17246184224027      7.31694309932846
  H   11.18975494414880      5.05388818147075      6.78449513144847
  H   9.81911769605771      7.00775798624712      6.59648067648477
