40
Coordinates from ORCA-job BOXNOT-OH_1_1_tpss_d4_lanl2dz_631gpol_Fe3.opt
  Fe  10.88663465432986      8.78055681217967      7.15248881207064
  Cl  10.84357715149693     11.04019756829405      7.15469884280710
  Cl  9.29786294512004      8.56355730086156      5.58629437345610
  O   11.05038583796489      7.01502605866666      7.29725130154006
  N   12.41503106910278      8.90431235189548      5.92861852923976
  N   12.24280917678011      8.86493543567006      8.47282742065954
  N   9.71855306464345      8.85387363501471      8.71560861728952
  N   11.81109924433143      8.86236713744966      9.74976954544933
  C   13.60837127557526      8.90054042174858      6.61184556839043
  C   14.82929646132883      8.97258477468113      5.92811577527594
  H   15.76212323373284      8.96734571740704      6.48630913777518
  C   14.81604439904443      9.06293251377572      4.53211501197519
  H   15.75124308577475      9.12262937172660      3.98057939036471
  C   13.59036658435426      9.08535286083268      3.85742135897371
  H   13.54198846171810      9.16230296189075      2.77478161046011
  C   12.39911564847896      9.00438762808430      4.59226085499990
  H   11.41573419485948      9.01770535400749      4.13041270887352
  C   13.48306229336471      8.86351852073739      8.05331012466084
  H   14.33293444036577      8.87412377946582      8.73148285302515
  C   10.41761200398249      8.88271454539862      9.88180074123799
  C   9.78626482431211      8.94412193341514     11.12938080682040
  H   10.37846431413015      8.96645302014532     12.03904734584435
  C   8.39221979982056      8.98679965029678     11.14890503381319
  H   7.87042343887581      9.03801571521802     12.10154501974910
  C   7.67190374309419      8.97157499451683      9.94419522020651
  H   6.58666244773475      9.00866786993969      9.93242470938284
  C   8.36994175935411      8.90659523964754      8.74066877057554
  H   7.88757379589106      8.89525830258218      7.76779197217570
  C   12.73856638619647      8.95677747763570     10.85107039235776
  C   13.19516913461601      7.77887898282344     11.45787309900966
  H   12.83840856156404      6.81212638653314     11.10841088624247
  C   14.10557870980340      7.88468322751021     12.51631183663613
  H   14.46946291290639      6.98423381392766     13.00606656370385
  C   14.54393327757626      9.14699668483885     12.94309822066412
  H   15.25049578022249      9.22179550715964     13.76699599733921
  C   14.07801361210040     10.31443904360531     12.31933794047466
  H   14.41951297341275     11.29007666025135     12.65794155100031
  C   13.16662310139579     10.22792875059300     11.26066269404444
  H   12.78579999387717     11.11754162973927     10.76251313897067
  H   10.45918620676603      6.61300035983247      6.61620622246381
