38
Coordinates from ORCA-job BOXNOT_1_2_tpss_d4_lanl2dz_631gpol_Fe3.opt
  Fe  10.89034281495391      9.14428598502043      7.12729078032190
  Cl  11.05791637725208     11.35115402170896      7.39942749394358
  Cl  9.36030681712829      8.81846382762098      5.59274260233953
  N   12.43626856090332      8.98250194795047      5.93507185225987
  N   12.24051782133266      8.92446143569092      8.44323210420458
  N   9.75176078130043      8.82590786990935      8.67701584098646
  N   11.81904539487384      8.89648988873427      9.73321007628388
  C   13.63442966196738      8.92550889382458      6.61408526447595
  C   14.85717833431555      8.91157029187010      5.93338397620926
  H   15.78675970016302      8.86205648404825      6.49456931380619
  C   14.85189595999682      8.96821131548266      4.53505815678556
  H   15.78996712120485      8.96474675443436      3.98523357553109
  C   13.62967083339161      9.03487426431142      3.85684104244188
  H   13.58612336431112      9.08775200210407      2.77270809560963
  C   12.43671825269281      9.04013548510698      4.58874569445439
  H   11.46000856100633      9.09622744115792      4.11767124751363
  C   13.49119686166285      8.87593543309842      8.05002048410796
  H   14.32463686166081      8.81148556668670      8.74460840461352
  C   10.43360937215125      8.85781593509581      9.85941059215102
  C   9.78891597375409      8.83912168792241     11.10163623264134
  H   10.37139744338274      8.87041665697421     12.01713020841985
  C   8.39619367374293      8.78418128233067     11.10816868499110
  H   7.86420201997850      8.77283235118443     12.05654680344369
  C   7.68674349289940      8.74716545728270      9.89533530429579
  H   6.60183483827244      8.70822504253974      9.87507677783982
  C   8.39337787299032      8.77240730238675      8.70005996487410
  H   7.91514696891760      8.76350270560848      7.72593213660704
  C   12.74755023737135      8.99726495320415     10.83142753983099
  C   13.16264540539057      7.82795028375448     11.48380113762336
  H   12.77550358940734      6.86068560121384     11.16977536889606
  C   14.07146839000557      7.93990726187870     12.54294385651245
  H   14.40123035657821      7.04582742843086     13.06711081282637
  C   14.55345746421833      9.20074737557038     12.92373049185496
  H   15.25971572797114      9.28120487712621     13.74725155436049
  C   14.13140260634510     10.35941823965965     12.25396500315331
  H   14.50593005391456     11.33419115193231     12.55800465551711
  C   13.21905817580742     10.26665923039395     11.19690325636549
  H   12.87007225678299     11.14970626674911     10.66517361190652
