40
Coordinates from ORCA-job BOXNOT-OH_1_5_tpss_d4_lanl2dz_631gpol_Fe3.opt
  Fe  10.67358513467822      8.74061767416555      6.97303422149660
  Cl  10.51445431375788     10.96138178160417      6.81684047488019
  Cl  9.12749304757960      8.34539317886050      5.38330553379586
  O   10.93038170638389      6.99988699081576      7.21756544948009
  N   12.47626316950661      8.91843109847368      5.86908595031113
  N   12.18329874762425      8.95455725421238      8.45077858941484
  N   9.64689023862559      8.89830083930052      8.79543337060631
  N   11.78044945106685      8.95431260617821      9.73337213031979
  C   13.61357371877165      8.97698354050351      6.61577737130965
  C   14.87286941665681      9.06421737687561      6.00485454458180
  H   15.76929420307819      9.10991446495782      6.61879340621981
  C   14.94446603140489      9.10111054091920      4.60840679721220
  H   15.91015676921288      9.16997861454875      4.11304281799915
  C   13.76341162997279      9.05738805350871      3.85873059742895
  H   13.77811585961613      9.09079673718182      2.77283621967775
  C   12.53708347657240      8.96735977270803      4.53023961769777
  H   11.58589434220851      8.93451627042988      4.00553933251614
  C   13.42281504888127      8.97449712474177      8.05665241869286
  H   14.26462706730248      9.00809013640585      8.74697045161574
  C   10.39189882568038      8.95096873083984      9.91864553120973
  C   9.81151255258953      9.01239122406411     11.19473707743218
  H   10.43965621573029      9.05163199364620     12.07929457049904
  C   8.42021098463802      9.03243128760509     11.27491751064356
  H   7.93991751839334      9.08237303401091     12.24939256775321
  C   7.64573346393071      8.99728131959751     10.10358247219579
  H   6.56049746379277      9.01789115369961     10.13787807066497
  C   8.29906483711356      8.93231033495537      8.87636752742887
  H   7.77053106782966      8.90466171008153      7.92751540318880
  C   12.72704655045321      8.98380835736866     10.82279801151642
  C   13.18150820224202      7.77045957580247     11.35769975321420
  H   12.80668102240048      6.82794950651570     10.96357051096434
  C   14.11135711715972      7.80609941920946     12.40360261402398
  H   14.47128760683721      6.87553725114110     12.83680594738406
  C   14.57330272633111      9.03733645036977     12.89182836649014
  H   15.29450034928121      9.05815298067817     13.70613254113800
  C   14.11133116666283     10.24186584458136     12.34089136890284
  H   14.47062762583124     11.19352106037962     12.72613538039793
  C   13.18125197374397     10.22343628524194     11.29475375194692
  H   12.80458015426945     11.14444216569927     10.85405972754738
  H   10.40042920218737      6.49464625811986      6.55657200020030
