38
Coordinates from ORCA-job BOXNOT_1_4_tpss_d4_lanl2dz_631gpol_Fe3.opt
  Fe  10.89531691495402      9.14666010024823      7.12313578657859
  Cl  10.77020795071259     11.38583077445630      7.08015096092748
  Cl  9.46714235128205      8.23529735253187      5.68093998653877
  N   12.44243391874430      8.97650663836518      5.92003400289643
  N   12.25989426704609      8.92650511807644      8.46232728248157
  N   9.75462258603126      8.88813842615717      8.68583948035459
  N   11.83129804127034      8.90527635052963      9.74772935692850
  C   13.63732496534212      8.94607437129082      6.60586295017117
  C   14.85945366752906      8.95622426327215      5.92473125024102
  H   15.79136162160190      8.93131858685015      6.48398805593506
  C   14.85225107840039      9.00427143963126      4.52449194531251
  H   15.79101504586113      9.01516567143793      3.97569311804003
  C   13.63097249033891      9.03963331946968      3.84339196292308
  H   13.58857657489803      9.07886549968042      2.75856608099970
  C   12.43727768049767      9.02255676799899      4.57656421688095
  H   11.45663798690129      9.04147478712233      4.10918436284050
  C   13.50509473180573      8.91161611192312      8.04932966816403
  H   14.35344997751339      8.88956616275196      8.73005959407179
  C   10.43977091432345      8.89112226931960      9.86618761473552
  C   9.79197964551205      8.87553951130456     11.10649696914828
  H   10.37303545689427      8.87726500080777     12.02369800407904
  C   8.39738328106923      8.86036304932169     11.11059932760587
  H   7.86435547096077      8.85097799150866     12.05851247510281
  C   7.68806316837974      8.85704358427221      9.89772490527414
  H   6.60243461771738      8.84765199532422      9.87656115425679
  C   8.39792960262379      8.86985986971645      8.70310079032908
  H   7.92481444227320      8.86743602537536      7.72580224777474
  C   12.75443895720331      8.98160806528198     10.85298424119092
  C   13.20507391121922      7.79546659632414     11.44923935965592
  H   12.84414966150612      6.83308573858571     11.09168339219070
  C   14.11298948512806      7.88435616378527     12.51123312646411
  H   14.46985210453408      6.97668290330513     12.99275344884073
  C   14.55715279398427      9.13954817339359     12.95237195854928
  H   15.26177740050668      9.20172094837909     13.77899654300859
  C   14.09859775271094     10.31573124617715     12.33999859521826
  H   14.44353752022887     11.28591450187555     12.69054290700279
  C   13.18897657221607     10.24549882140136     11.27873546108137
  H   12.81355539027772     11.14314580274660     10.79105741620494
