41
Coordinates from ORCA-job CEBMUS_2_6_tpss_d4_lanl2dz_631gpol_Fe3.opt
  Fe  2.80175065674189      2.27822998290688      2.73881050785856
  Cl  2.24198481891107      4.06583727887767      3.96032657947858
  N   2.71063994993507      0.81970214711080      4.17481751264735
  N   4.83386514085615      2.40678404196814      3.43087461825764
  H   5.12575032393077      3.39230552633665      3.38726798023714
  N   1.86399914497127      2.78490294171197      0.96922206779486
  N   3.79780983434292      0.94020093792775      1.31801701347800
  H   3.85589264374476      0.00333282454498      1.73314540059582
  C   1.72934740331865     -0.10558588986246      4.32921448628910
  H   0.92226766383353     -0.08413540365038      3.59993845965146
  C   1.74886996577308     -1.02260835440459      5.37737842412657
  H   0.94254959132769     -1.74396427063013      5.47951434360730
  C   2.82009504004963     -0.98682802048160      6.28176155155605
  H   2.86693789828337     -1.69326582699272      7.10761808264207
  C   3.83298872849541     -0.03220967379014      6.11497442280618
  H   4.67214761755499      0.01536169764073      6.80546609346250
  C   3.75189540890554      0.87350806438610      5.05635707701734
  C   4.74664617386610      2.00276875472149      4.87153191727379
  H   4.40311467188473      2.87917379853064      5.43735501260281
  H   5.73746151690442      1.71818247864101      5.24911433253284
  C   5.78236380150291      1.56983188875883      2.60152023298642
  H   5.76699535979518      0.56705824152732      3.05392927741144
  C   7.20546607490116      2.13736221300441      2.62154325137621
  H   7.58986899961157      2.20160062074556      3.64660396192252
  H   7.23743831705775      3.13794400919654      2.16974108066279
  H   7.87902855121023      1.48390049994714      2.05414022941443
  C   1.02455667508087      3.85687436137965      0.86974879001193
  H   0.80043470581395      4.37787409997941      1.79499193571194
  C   0.49561525059930      4.26572914501354     -0.35033619654821
  H   -0.16981548841453      5.12433645552466     -0.38296954346348
  C   0.84841386227745      3.56633150490048     -1.51258127101596
  H   0.46255719659276      3.87284210135092     -2.48235819309701
  C   1.70947672132466      2.46584876393891     -1.41158933721288
  H   1.99890320605611      1.90003094957423     -2.29439166828390
  C   2.19266841764896      2.08953425312569     -0.15866039187219
  C   3.04131326791412      0.85238285970186      0.03643063789993
  H   2.38762783371285     -0.02861129790234      0.09279893874942
  H   3.72001687171202      0.70226001283093     -0.81342070301687
  C   5.18698569963629      1.47865884980922      1.19276123959385
  H   5.12501663757537      2.47169084317406      0.72591542587600
  H   5.80075384475966      0.83302658892603      0.55017641897741
