43
Coordinates from ORCA-job CEBMUS-OH_2_3_tpss_d4_lanl2dz_631gpol_Fe3.opt
  Fe  2.40075847597798      1.58113455401002      2.57527178858472
  Cl  1.30435964962386      2.97426119379017      3.92127265497381
  O   1.01923397772286      0.58182262771887      2.14181199664783
  N   2.81045697060495      0.45810651564168      4.16135124832668
  N   4.21969716902807      2.34810137646602      3.14109771463885
  H   4.27987650301225      3.32639872694373      2.82791609724816
  N   2.18430362597493      2.74881354710695      0.97902048054101
  N   3.48806127406625      0.54079055483748      1.24715987642035
  H   3.53706991709882     -0.43653901411843      1.56152990505818
  C   2.17495728917109     -0.70747466077536      4.42663793310046
  H   1.46169338518250     -1.04199742595414      3.67878690567546
  C   2.42169822292596     -1.41091604910237      5.60545087344406
  H   1.89366712330046     -2.34284192906953      5.78938497419016
  C   3.33760586306707     -0.89335358183511      6.52930163467705
  H   3.54315696205161     -1.41974902405579      7.45854013718151
  C   3.98990875774820      0.31344892075683      6.24435401200550
  H   4.70840099598344      0.74195026006484      6.93919216552119
  C   3.70069632381530      0.97623063001849      5.05239162815899
  C   4.29073113467130      2.29837242959631      4.64085877569087
  H   3.69591247249800      3.12778957517342      5.04041523239060
  H   5.32861446170907      2.41177649924031      4.97682358293881
  C   5.34628191847556      1.54354324345288      2.51380776230626
  H   5.44878046181867      0.65408484068612      3.14987037106203
  C   6.66091797873759      2.33014297815417      2.46892819888996
  H   6.98027169431299      2.63825963511773      3.47108848627851
  H   6.56450211520378      3.22467358221290      1.83889961540199
  H   7.45607378218137      1.70130663171792      2.05066178282287
  C   1.80004112316452      4.04884611927037      0.97241621027512
  H   1.68011209168838      4.52345519892627      1.94137193977776
  C   1.54543359723143      4.72229382097945     -0.22248065302827
  H   1.23626124268278      5.76363382413159     -0.18869801755047
  C   1.68318357339805      4.03805162724630     -1.43617502554976
  H   1.48318847362490      4.53968644285860     -2.38032041861037
  C   2.08742921051866      2.69567443898260     -1.42279878274453
  H   2.20920346836322      2.13600495781988     -2.34728961996604
  C   2.32917167966374      2.07275331858011     -0.20026004353084
  C   2.73531910840070      0.62971350655455     -0.04689887405074
  H   1.85181588419727     -0.01405259049774      0.03801975875307
  H   3.35822345736371      0.27976093310966     -0.87994756556910
  C   4.86673267691505      1.12371033203229      1.13222933228293
  H   4.79560221044969      1.99416532873216      0.46873403467230
  H   5.54338807292543      0.39225540644139      0.67378360186567
  H   0.17293562344809      0.97445069703619      2.46441828879711
