42
Coordinates from ORCA-job CEBMUS-oxo_2_2_tpss_d4_lanl2dz_631gpol_Fe3.opt
  Fe  2.36117092728507      1.61543585832114      2.61752119570217
  Cl  1.52402158777220      3.12877557415448      3.97780472843775
  O   1.16763573727018      0.63250982449255      2.22071034849659
  N   2.75107412875790      0.49007186694568      4.22020466406050
  N   4.27882627953238      2.32343971403537      3.18363545323758
  H   4.32911181347468      3.31371588687982      2.91018010639280
  N   2.12610221151682      2.77782438990862      1.00430706898376
  N   3.48904777404033      0.61193060255079      1.26911240815737
  H   3.55823556279038     -0.35842900857053      1.60149630988725
  C   2.02003569246422     -0.60997855898637      4.52536435192359
  H   1.24595363676479     -0.88492778987003      3.81425703680754
  C   2.24552061191206     -1.32809275513334      5.69846519693526
  H   1.63850200179515     -2.20471378983575      5.90894669290514
  C   3.24381474834797     -0.89708275690615      6.58050906002865
  H   3.43809268381199     -1.43737975529231      7.50423850463679
  C   3.98921845259757      0.24421941122567      6.26000928504170
  H   4.76867081187658      0.61131088682164      6.92380446579405
  C   3.71319217525638      0.92932635255172      5.07682113202985
  C   4.39401566662369      2.20998280735110      4.67172887027101
  H   3.89031400673202      3.07008383787451      5.12772898225385
  H   5.44843141750292      2.22114708385104      4.97424911074090
  C   5.38288321532550      1.55683924509916      2.49722769453611
  H   5.50951963293044      0.63603085793284      3.08365678517827
  C   6.69698183400863      2.34531798007717      2.44280128680998
  H   7.05019203428461      2.60506038081076      3.44737223437959
  H   6.57909307981099      3.26957720944243      1.86114210873027
  H   7.47608674012357      1.73751246638564      1.96700785587423
  C   1.71613197738049      4.06873605562527      0.98675055736303
  H   1.60754861856473      4.55889331315632      1.94880849280705
  C   1.42924893257806      4.72461844482285     -0.21144780228138
  H   1.10010165007816      5.75995049321445     -0.18088366943681
  C   1.56347089033107      4.03320946878037     -1.42010665439670
  H   1.33932367131732      4.52053703123915     -2.36631078228432
  C   1.99789644134293      2.70027776558635     -1.39756246623960
  H   2.11982615629517      2.13304777307468     -2.31748241779867
  C   2.26718081517395      2.09563018304499     -0.17229449350996
  C   2.71135935155847      0.66606543290265     -0.01364998227844
  H   1.85092952707798     -0.00751095989520      0.08545083172786
  H   3.33756503043009      0.32761888753001     -0.84893039784681
  C   4.85145188565469      1.20781184846623      1.11726046367407
  H   4.74566745174882      2.10994891516616      0.50292842781049
  H   5.50465313585892      0.49765752516798      0.59436695445755
