42
Coordinates from ORCA-job CEBMUS-oxo_2_4_tpss_d4_lanl2dz_631gpol_Fe3.opt
  Fe  2.37293803837314      1.65675867801580      2.66488188412595
  Cl  1.38433558293713      3.13641539068681      3.96207099031322
  O   1.01779462941266      0.79233013620885      2.29343970641730
  N   2.78799785412011      0.48719281760462      4.18709391601431
  N   4.25877451234578      2.39242690995682      3.21047463987689
  H   4.34233052771921      3.38432265850505      2.95421829419797
  N   2.16433211092776      2.78490809911896      1.00603479145445
  N   3.44054482638033      0.60029656269954      1.32319741062061
  H   3.50417272859258     -0.36376790755837      1.67466972830171
  C   2.08121991346368     -0.64311833655283      4.44657483575203
  H   1.31674001679883     -0.90504528058937      3.72027087380413
  C   2.32116477466002     -1.38812307747814      5.59812760620832
  H   1.73923488693037     -2.28748586210901      5.78108909441897
  C   3.30044890796673     -0.95011127516284      6.50113661397130
  H   3.50349869688934     -1.51288696787831      7.40952850660903
  C   4.01321282372925      0.22585934608545      6.22821538603855
  H   4.76981350663340      0.59603693515179      6.91602415663271
  C   3.73282630784911      0.93855484458809      5.06368865670915
  C   4.35959049645680      2.25799293130347      4.69713932857596
  H   3.79398114081569      3.07936138376995      5.15558090759523
  H   5.40228028148109      2.32278097945771      5.03217833537144
  C   5.35109254637513      1.59642866019117      2.52254409209784
  H   5.48353096011146      0.69427232440877      3.13612914270001
  C   6.66932398724106      2.37271854324269      2.43018326023999
  H   7.02966278260006      2.66205586325383      3.42428652557952
  H   6.55054592883632      3.27906843648836      1.82134074314216
  H   7.44391596147060      1.74901285073985      1.96829910409984
  C   1.81757719601280      4.09370075114955      0.96768025120333
  H   1.74444265371311      4.60865017170290      1.92025583937048
  C   1.54245645628611      4.73269628304684     -0.24186877780947
  H   1.26217707982105      5.78270040981530     -0.23223050689639
  C   1.61698169010727      4.00415068321554     -1.43429196134679
  H   1.39559470633011      4.47815922363932     -2.38770123219667
  C   1.98653838483600      2.65265629173122     -1.38685430614248
  H   2.06696231622606      2.05880490153469     -2.29422223723616
  C   2.25034536249213      2.06595817715816     -0.15162667041380
  C   2.64615549662870      0.62779365560391      0.04966404184498
  H   1.76224622897880     -0.00568638035771      0.19409300908762
  H   3.24423921973206      0.23284251670582     -0.78121188188874
  C   4.81120287943991      1.19070030549601      1.15741933598418
  H   4.71024433476235      2.06478364572889      0.50390185874995
  H   5.46563126351579      0.45983371968078      0.66577470682128
