43
Coordinates from ORCA-job CEBMUS-OH_2_5_tpss_d4_lanl2dz_631gpol_Fe3.opt
  Fe  2.32310199266091      1.62692456615598      2.66816969735036
  Cl  1.29549262981538      3.18316376423417      3.91545599401580
  O   0.93609153725441      0.64732474423610      2.22154529444378
  N   2.84930008502835      0.36324788352420      4.24626286464678
  N   4.18903027000458      2.31662057573515      3.20952803986871
  H   4.23616094089153      3.30143692301420      2.91284459686355
  N   2.20605277999180      2.84739610458629      0.87405468010810
  N   3.47209570411629      0.57499864656447      1.19306170857565
  H   3.52160462184596     -0.40491935128330      1.49596331469825
  C   2.23578026024661     -0.81223493609976      4.51782755856408
  H   1.51929340491589     -1.15976193835118      3.77775116717457
  C   2.50530593692161     -1.51197740114297      5.69352936323485
  H   1.99651968338601     -2.45230374341543      5.88890292803167
  C   3.42505862653429     -0.97526873613251      6.60556773322185
  H   3.65200488188261     -1.49955188306995      7.53119955237601
  C   4.05438796867274      0.24471092398099      6.31752445519155
  H   4.77124071112495      0.68280268239098      7.00814574234418
  C   3.74130779444531      0.89630441455338      5.12537798088380
  C   4.28997420376808      2.23716186238715      4.70845587553063
  H   3.68485500323228      3.04937329313626      5.13087667372484
  H   5.33125739453372      2.37689455861620      5.02308251014949
  C   5.30400280840768      1.52714941351352      2.53137236010978
  H   5.39760062072661      0.60811395586491      3.12485855689561
  C   6.62404865128732      2.30836075120994      2.53159082418656
  H   6.95397099932664      2.55400506238115      3.54723250934638
  H   6.53484191411964      3.23790959373358      1.95353308337514
  H   7.40959597109378      1.69561717927251      2.07273191521068
  C   1.82618752714935      4.14633119316234      0.81551052769336
  H   1.73466055512392      4.66735257001548      1.76433201576885
  C   1.55522186382085      4.77546929427321     -0.39995462250067
  H   1.25656753247382      5.82052037486811     -0.40711790568508
  C   1.67311218031191      4.03904924642877     -1.58573617220468
  H   1.46462976347780      4.50196396300591     -2.54770131570292
  C   2.06903928016384      2.69680786826082     -1.52006996229059
  H   2.17421673253077      2.09682506862096     -2.42137460747240
  C   2.32296295806727      2.12718508265373     -0.27143891852547
  C   2.72207072788502      0.67826185201195     -0.08785082485435
  H   1.83204502931062      0.04202306719233     -0.00326125131231
  H   3.33095476881677      0.32201871909002     -0.93001407149068
  C   4.83450526506648      1.18122827663647      1.12402916588538
  H   4.75770992977625      2.08956451745642      0.51466183604431
  H   5.53839312147403      0.49663159725624      0.63313931755939
  H   0.07347536831609      1.04380839947109      2.49432980896503
