43
Coordinates from ORCA-job CEBMUS-OH_2_1_tpss_d4_lanl2dz_631gpol_Fe3.opt
  Fe  2.40689613561709      1.58554233907934      2.58154790810557
  Cl  1.31582557614729      2.99920736399776      3.90196790676786
  O   1.00387136050332      0.60382862082525      2.15224448193512
  N   2.81710072746954      0.46077793951952      4.15626388028732
  N   4.21782499909261      2.34587400375724      3.14892056031148
  H   4.27728875980298      3.32488602166949      2.83783234223039
  N   2.18319735571717      2.74820223286951      0.97522159352463
  N   3.48118783111625      0.55267738133089      1.25362340968689
  H   3.53167706492314     -0.42189533776292      1.57715019328020
  C   2.18444243077153     -0.71058689036218      4.41343677862621
  H   1.47869883634698     -1.04745403880634      3.65935590502030
  C   2.42569819582963     -1.41848112941963      5.58984492962661
  H   1.90002530956313     -2.35331422958769      5.76591442713783
  C   3.33385669371320     -0.90197402575174      6.52231145801665
  H   3.53506933585434     -1.43191680089783      7.45048211460140
  C   3.98450601771287      0.30806228956091      6.24621818393739
  H   4.69697369268884      0.73587247872303      6.94760050272380
  C   3.70223924233114      0.97449474406833      5.05478825416504
  C   4.29507002845931      2.29623358139948      4.64700061276970
  H   3.70315777909886      3.12535854128441      5.05108103584176
  H   5.33359995603691      2.40574671601269      4.98210659569351
  C   5.34409769379347      1.54633449879680      2.51704278749891
  H   5.45045123192004      0.65441489360332      3.14920221658053
  C   6.65837587722903      2.33336693090539      2.47071588709974
  H   6.98104060751900      2.63725731413825      3.47317357230487
  H   6.55933741532080      3.23088775194164      1.84533934633741
  H   7.45270382411763      1.70734070171586      2.04675871368592
  C   1.80903004855678      4.05115385352880      0.96142437360144
  H   1.69637694425756      4.53384328426304      1.92732460147594
  C   1.55540678522887      4.72152303603416     -0.23530953414459
  H   1.25362296136686      5.76512058453902     -0.20461605714042
  C   1.68560780093787      4.03158088163397     -1.44651580669837
  H   1.48770356341349      4.53057753197019     -2.39247193702041
  C   2.08148330543143      2.68695881708246     -1.42726953560339
  H   2.19821004276980      2.12210795685612     -2.34926392001220
  C   2.32269271108931      2.06866288913137     -0.20234454257203
  C   2.72841640372234      0.62691188595819     -0.04087325012297
  H   1.84524980158480     -0.01664441227064      0.05030626316143
  H   3.34955257008293      0.27081044786538     -0.87247234689652
  C   4.86163264227490      1.13008881314023      1.13494953642244
  H   4.79124837452995      2.00206170046610      0.47327654239654
  H   5.53519690279530      0.39763808029633      0.67373697041643
  H   0.17008516326152      0.97540075689438      2.53090304493948
