75
Coordinates from ORCA-job BAZYOT_1_2_tpss_d4_lanl2dz_631gpol_Fe3.opt
  Fe  -0.27619385930614      6.51867398611024      1.90068743195528
  O   -1.75596349841153      5.43342487055872      1.89007173466403
  O   -0.52095802237144      6.73496857341061      3.68651518827278
  N   0.85831198515721      5.06343696686011      1.88597987879554
  N   -0.09165442056104      6.52237159823608     -0.10327465420082
  H   -0.98071990977773      6.26973038030475     -0.54577712894058
  N   1.09852074493185      7.83795179828265      1.82514859635735
  C   -1.81825046571225      4.48574707177885      2.81298918993705
  C   -3.09569289427088      4.13266279574538      3.33445988974209
  C   -3.16509290814558      3.15445203151412      4.31997931794839
  H   -4.14224658156880      2.91506316150955      4.74214513815955
  C   -2.02375807927118      2.47127243626779      4.81827531152699
  C   -0.78702839000434      2.78269599755875      4.26953331256051
  H   0.10566819923637      2.27292600934756      4.62679608803003
  C   -0.64822387041355      3.77405886621356      3.26076660108395
  C   0.61414834965966      3.96053925906740      2.58895181521575
  C   1.65778342113045      2.90728077551560      2.64735421999977
  C   1.34873760999924      1.56283885078874      2.35928044741597
  H   0.32986234772590      1.29460393337677      2.08637428720553
  C   2.35089926051624      0.58916128481585      2.41275617111261
  H   2.11112061558978     -0.44614796161831      2.17843137956238
  C   3.65966549486679      0.94464831919613      2.77022603144810
  H   4.43486598247700      0.18232220920747      2.82024014331583
  C   3.97009008991722      2.27935740053631      3.06952024260610
  H   4.98249349840750      2.55207929014383      3.36147946010381
  C   2.97665970939710      3.26028849064973      3.00045169075495
  H   3.20286070510442      4.29672317675303      3.24910542832009
  C   1.80293684583781      5.14058081099114      0.76146529756153
  H   2.32180972215222      4.18834605714461      0.60340753438686
  H   2.54903812515878      5.91612840532970      0.96906596212817
  C   0.94237926372751      5.49033506005595     -0.47147102585138
  H   1.55946763838429      5.84245607211083     -1.30942854719619
  H   0.39835161225283      4.59443485804972     -0.78833781044987
  C   0.24898494150903      7.93429833257297     -0.44905160978015
  H   -0.66030155779978      8.52310537977585     -0.27511811006157
  H   0.53705355938926      8.03423340836226     -1.50582325254300
  C   1.37290513272121      8.39332894034807      0.47699183628445
  H   2.34354171723769      8.03025405632757      0.11151542179749
  H   1.43189704362877      9.48839861060226      0.50484625808492
  C   1.85168773475758      8.22721248699639      2.84958440645290
  C   2.95321638313039      9.21034529988378      2.61038650509273
  C   4.14227756280695      8.80818049798590      1.97573118081960
  H   4.27588516737649      7.76559121565262      1.68600734864774
  C   5.16396215029640      9.73621794728241      1.74514338677408
  H   6.08756636444323      9.41678884996680      1.26593591659970
  C   4.99928233360560     11.07225536674634      2.13605890578215
  H   5.79244347735017     11.79414172779985      1.95195993843087
  C   3.81764988156803     11.47611175257482      2.77215701367122
  H   3.69073106633436     12.51084519624098      3.08430988533389
  C   2.79928863272291     10.54772484069425      3.01806680862801
  H   1.88560424214353     10.85204927769343      3.52590778971809
  C   1.61734716529812      7.76753485068427      4.19485833160149
  C   2.55236501609661      8.08970483338648      5.21942807758173
  H   3.47280016713522      8.60004442133056      4.94442591029178
  C   2.32199239085928      7.76422541120499      6.54803845647825
  C   1.10194635593962      7.11593134487198      6.87832926108675
  H   0.90731035024375      6.86590470669988      7.92229587521000
  C   0.14717723909023      6.77840888058649      5.92818925872461
  C   0.41237642723188      7.07810109462440      4.55781350472754
  C   -4.31291181548755      4.87138987529194      2.83748229256345
  H   -4.41980066062183      4.76790042355769      1.74911191909985
  H   -4.22802853851907      5.94655005331939      3.04822120698360
  H   -5.22269347847226      4.49128260866242      3.31534681950035
  C   -2.16960659426741      1.43585076368200      5.91034844425249
  H   -2.79508039896090      0.59537622597714      5.57696452608665
  H   -2.65064153524717      1.86403590832505      6.80077367043197
  H   -1.19440457409099      1.03398660157207      6.20977248827343
  C   -1.14402389085027      6.08508283782647      6.28561956841202
  H   -2.00823164316241      6.64222929797418      5.90048819574074
  H   -1.24197611812137      5.98839654629111      7.37311893193522
  H   -1.18923214833221      5.08272006819733      5.83900104546589
  C   3.33033911178967      8.08729983969730      7.62706990608910
  H   2.87658835136920      8.69033671503708      8.42590736463223
  H   4.18179725429792      8.64603314461056      7.22081966685514
  H   3.71772741174429      7.17037752326865      8.09459702471005
