75
Coordinates from ORCA-job BAZYOT_1_6_tpss_d4_lanl2dz_631gpol_Fe3.opt
  Fe  0.20701913777913      6.18278308344229      2.20325895104625
  O   -1.46805362500029      5.30241225713237      2.02185976572173
  O   0.19969923558764      6.41704706789665      4.05178231048863
  N   1.16441062154197      4.44208687712364      1.81555190830282
  N   0.44965540186035      6.35791662118012      0.01100409925522
  H   -0.48410068702671      6.20189291031037     -0.37519049538460
  N   1.43051276906933      7.89983889003172      2.08989576088874
  C   -1.56705958266161      4.29524583547009      2.89103834337366
  C   -2.77087846333924      4.19285117782223      3.64875587495118
  C   -2.90298734028132      3.16364069903041      4.57646956744112
  H   -3.81902464408643      3.11072911341206      5.16689794523422
  C   -1.89653053059025      2.19183285530744      4.78892038477261
  C   -0.73824831580937      2.27201186332202      4.01757069505379
  H   0.05096058556073      1.53610494603860      4.16140915794350
  C   -0.53365071650837      3.30530303605833      3.07214212313947
  C   0.69091021572705      3.30014474996297      2.26819444999430
  C   1.35446431577114      2.00494137987259      1.97450042887243
  C   0.59558447090911      0.90459213317286      1.52624917162216
  H   -0.48002334300649      1.01234303271609      1.40055802017129
  C   1.22518791103907     -0.30888447335294      1.23407978678841
  H   0.63599608749518     -1.15057722309374      0.87594823477379
  C   2.60989206808299     -0.44309279220748      1.41004674165065
  H   3.09579811257343     -1.39233858205149      1.19268258597086
  C   3.36819715888355      0.64086385679465      1.87574555133958
  H   4.43961709313014      0.53148890026641      2.03088541881258
  C   2.74665361024652      1.86246637081326      2.14975787688720
  H   3.32735609180117      2.69945560084920      2.53516302062966
  C   2.11861899890938      4.59833466746448      0.71663688440119
  H   2.55045985351184      3.64678614005592      0.38274865790595
  H   2.93515784722932      5.24829371296024      1.06023547435669
  C   1.34864203827585      5.25293938423176     -0.45548673616104
  H   2.05028292738994      5.62507674899524     -1.21558122714050
  H   0.71399745658041      4.49006112279069     -0.91929676231391
  C   0.88439789105245      7.74521292432368     -0.28951930092730
  H   -0.00469169171105      8.38230328288036     -0.20416991573235
  H   1.28056374458634      7.83620599995501     -1.31243261298223
  C   1.93169498774316      8.19374085952246      0.72925963871367
  H   2.87550784021462      7.64878296667299      0.57135154105753
  H   2.15003628363904      9.25906540856280      0.59193674429153
  C   1.90090258099398      8.60487327355159      3.10633410111797
  C   2.89480954754688      9.69714545510266      2.83518448815097
  C   4.26583781236780      9.39355883697297      2.77685733332735
  H   4.60217379101894      8.37381355727800      2.96019460177358
  C   5.19448853169019     10.40431679795171      2.50074731652524
  H   6.25589366063061     10.16648401984096      2.46351616157171
  C   4.75994005049532     11.71820733979137      2.28056016816981
  H   5.48324610746948     12.50274165501791      2.06738279875272
  C   3.39342605875773     12.02316777799817      2.34210341719735
  H   3.05259052614398     13.04398092504381      2.17959215241521
  C   2.45969859751970     11.01706422696410      2.61993126100799
  H   1.39796456358610     11.25253859388201      2.67842951454384
  C   1.53902760346471      8.36947328153293      4.49620275645345
  C   2.04849643571858      9.23605248863018      5.49821902654316
  H   2.67945095371874     10.06964715441038      5.19989354211692
  C   1.76385907581601      9.05462909878187      6.85153690337509
  C   0.94712808465551      7.96080707163241      7.22273561843654
  H   0.71976174985465      7.80662142841447      8.27859690619301
  C   0.42076728509952      7.07042421234931      6.28992033946157
  C   0.71187999489160      7.27493709442712      4.90972584578551
  C   -3.84245565312835      5.23311074065673      3.44102035177745
  H   -4.16488932429917      5.26254965918203      2.39112073358602
  H   -3.46244714447097      6.23581686196526      3.68345175968388
  H   -4.71544266923213      5.02701683960668      4.07122399616594
  C   -2.08368152767722      1.10300323701978      5.82043425970987
  H   -2.96577662867296      0.48812185436751      5.59100933537178
  H   -2.23852197439798      1.52818467720223      6.82224562433275
  H   -1.21076893966998      0.44116648765679      5.86348453081425
  C   -0.44813778148003      5.89917265196626      6.67564130323626
  H   -1.44091015681367      5.97830970997263      6.21111782192587
  H   -0.57242655986667      5.84550595880835      7.76325670463611
  H   -0.01520577200058      4.95351268854776      6.32051202207030
  C   2.31170482829967      9.99457194581044      7.90108559781311
  H   1.49934892093289     10.47350605599349      8.46615331867760
  H   2.92172346894989     10.78500214661652      7.44801111762636
  H   2.93721808591738      9.45626078931654      8.62750720444254
