77
Coordinates from ORCA-job BAZYOT-OH_1_1_tpss_d4_lanl2dz_631gpol_Fe3.opt
  Fe  -0.45265143476592      6.70200362553700      1.88063769025598
  O   -1.67056314557261      7.99034584996333      1.53206890956667
  O   -1.90721871238046      5.48989629348044      1.92866798117137
  O   -0.57687974101630      6.72072658139551      3.71211006222343
  N   0.74617453275926      5.19201467425849      1.90072447299335
  N   -0.14478460120733      6.61471110434296     -0.11453167299051
  H   -1.04874290678120      6.37851009766019     -0.53326809136875
  N   0.99811459954111      7.92984459971920      1.81519677507163
  C   -1.90355217919295      4.52606468199616      2.81772073109522
  C   -3.17669851509862      4.06940875865526      3.29661552289433
  C   -3.21127989722949      3.09148120217946      4.28044512049783
  H   -4.18185505914468      2.77847979110113      4.66778560881595
  C   -2.03905715153746      2.49473431483463      4.82000970786269
  C   -0.80762138366183      2.88989608758033      4.30697978894614
  H   0.10424573079708      2.43749768675949      4.69123316073413
  C   -0.70207459786805      3.88413725130968      3.30267105199318
  C   0.55826856395722      4.10464702728314      2.63053737919648
  C   1.63771933078794      3.08861066212477      2.73152689526105
  C   1.39705390166038      1.72982612770215      2.44896921757061
  H   0.40148627580477      1.41313307330116      2.14361738553213
  C   2.43791674981296      0.80090553134840      2.54662708025557
  H   2.25153321054798     -0.24569341250549      2.31417816473034
  C   3.71613895986237      1.21585409438941      2.94681129946036
  H   4.52129902656515      0.48864216684464      3.03200726482980
  C   3.95768741310171      2.56524413049855      3.24327588559077
  H   4.94604178145699      2.88453627663996      3.56850187823529
  C   2.92647975895602      3.50164810011414      3.12759099431026
  H   3.09909099738976      4.54958936951718      3.37096786341214
  C   1.71681117688507      5.25280592422975      0.80146768253987
  H   2.26293265927289      4.31165074736689      0.67283888630030
  H   2.44014945203308      6.05359219756871      0.99434476502464
  C   0.86625179634514      5.55777719777842     -0.44558124016882
  H   1.48777047965800      5.87128531114410     -1.29492785739692
  H   0.31279061020027      4.65578401087586     -0.72782058486402
  C   0.21460326207838      8.01207401103362     -0.49674925392157
  H   -0.70665301557136      8.59013625570838     -0.39715438857626
  H   0.57898847854374      8.05456779892988     -1.53260486022692
  C   1.27087792657779      8.52311807766658      0.48228228489036
  H   2.28568876704451      8.24518992808212      0.16492241798644
  H   1.24188365874684      9.61768339893104      0.54050528312484
  C   1.80896601363519      8.20650436183301      2.81839730571280
  C   2.97165370251516      9.11780005845721      2.57095491956618
  C   4.19922965727341      8.59501823802191      2.12759406193344
  H   4.31558071526241      7.51878074730625      1.99945777033448
  C   5.27401849285288      9.45477527495765      1.87024390431348
  H   6.22479579743639      9.04608548438780      1.53307973651037
  C   5.12579255760895     10.83657463060738      2.05117260320193
  H   5.96150686449530     11.50391529439231      1.85024067846928
  C   3.90400636325387     11.35839255225813      2.49749661031310
  H   3.78936253904484     12.43034577383504      2.64631602466430
  C   2.82706293759962     10.50308281238499      2.75990080683297
  H   1.87827030824479     10.90239664756608      3.11490894473923
  C   1.60760820132886      7.69030281028965      4.15411198563968
  C   2.58888501764442      7.94102865966499      5.14798783514701
  H   3.50410569239602      8.45291396080723      4.85963512154666
  C   2.40854617141952      7.56156674939658      6.47378290358653
  C   1.18131638262228      6.94333243084474      6.83491060356917
  H   1.01867570081298      6.66875840227620      7.87794349238802
  C   0.17533871126912      6.68276491084077      5.91704176800018
  C   0.39421613436354      7.02232010656030      4.54096844764649
  C   -4.42652361527592      4.71403211851529      2.75487473638248
  H   -4.46848047673402      4.63496712641154      1.66015519755397
  H   -4.44875567202578      5.78619962429549      2.99713055147365
  H   -5.32236296565762      4.24449274487802      3.17634111192893
  C   -2.14508638819018      1.46405461008083      5.91838119379442
  H   -2.78228144935945      0.62255789614122      5.61117795787460
  H   -2.59824893178366      1.89702126607572      6.82216882497317
  H   -1.15993385266501      1.06675646725496      6.18930100841496
  C   -1.14006993721330      6.06093679374974      6.30899486502271
  H   -1.97302597665053      6.73707855129917      6.07119182615650
  H   -1.16081266328185      5.84444366764587      7.38323097470208
  H   -1.32002367686181      5.13058257152300      5.75629430404378
  C   3.46989753379781      7.81511620611473      7.51778544712007
  H   3.07143808049751      8.41689898588374      8.34699536033120
  H   4.32925404678997      8.34645755117406      7.09249471942285
  H   3.83187629657478      6.87107491655982      7.95091247382711
  H   -2.51502507239870      7.63327838836124      1.88836266000241
