84
Coordinates from ORCA-job BUBGAI-CH3OH_2_2_tpss_d4_lanl2dz_631gpol_Mn2.opt
  Mn  3.60251711518133      2.82762598104782      3.32506472166393
  N   2.07533433842519      2.14104769337598      2.27846247677632
  N   4.83841932084608      1.27704518506455      2.62158743173684
  N   4.62514769456948      3.94412754895722      2.02433169976991
  O   2.32440349200496      4.43216458573957      3.69838679574405
  N   2.88231249575257      1.52841799756686      4.70448061715429
  N   4.82829395135972      3.36385324705756      4.82380656915748
  C   1.79632153884793      2.17198950835558      5.58426907861256
  H   1.01974392062479      2.50752340034059      4.88750196555987
  H   2.27280601120908      3.04900924549216      6.03413981376322
  C   1.77450062648190      1.20276767792450      7.92459213568928
  H   2.61455783958484      1.85000517738477      8.18064453880874
  C   1.20869399106748      1.26827624189205      6.63676986693330
  C   0.07128097708508      0.48865407274118      6.35041055999593
  H   -0.41494222888726      0.57690392743168      5.37735774158933
  C   -0.46552414550821     -0.36798554794471      7.31788706024258
  H   -1.35012643357247     -0.95874386264965      7.08941188129754
  C   0.12450285518251     -0.44749986051377      8.58682550603426
  H   -0.29596340456127     -1.10845493315731      9.34160364170966
  C   1.23864104353816      0.34602161461008      8.89293647219785
  H   1.67710671693313      0.30982676844061      9.88799323060520
  C   4.76443678841698      2.50366525327303      5.88706452937906
  C   6.23260487321321      4.81580727368830      6.14844524936493
  H   6.81102652321691      5.73433728778729      6.20582649136551
  C   5.39868283724912      2.76535772916116      7.10089843002180
  H   5.31783711718332      2.04691735679201      7.91242824103089
  C   5.56560111218652      4.49457714247936      4.96571088567980
  H   5.61321023401315      5.14262405245973      4.09477278318216
  C   6.14224494959055      3.94496084090517      7.24100328881025
  H   6.64389563774847      4.17405647581600      8.17813311352326
  C   5.59589998782464      1.80466825977374      1.43207142986424
  H   5.05660128533071      1.47518054680340      0.53318487503436
  H   6.59556709428103      1.35197359286392      1.39341102780704
  C   5.65598888337465      3.30688617105499      1.40229945204633
  C   5.42173131970143      6.03209311402361      1.09759085786943
  H   5.27617443995593      7.10354888638694      0.98574713008251
  C   4.51221183758626      5.28930434685858      1.84816542232052
  H   3.65959482691442      5.75300865522625      2.33284050059639
  C   6.62531924793219      3.99353370834472      0.66841048684879
  H   7.44359066756656      3.44256459060931      0.20990871191092
  C   6.51512589110961      5.38021113455217      0.51298131012951
  H   7.25542370037893      5.93360603042606     -0.05954835778197
  C   1.47214872310971      1.03073463945970      2.81461795345289
  C   1.49216053503753      2.73427086829948      1.20221770310301
  H   2.01532758089797      3.60032318422503      0.80305555514389
  C   0.29691666094531      0.49995071729634      2.28943551639802
  H   -0.13892954187467     -0.38794781883040      2.74084677264187
  C   0.31254139382967      2.25221281336112      0.63002594297415
  H   -0.10912765959107      2.75706628282945     -0.23537347817117
  C   -0.29877527299660      1.11941122070045      1.17976897572615
  H   -1.21740452968141      0.72286142989675      0.75435633756369
  C   4.06525448923280      1.19959693521014      5.58160578590886
  H   3.72394459261120      0.70239944586776      6.49586126466791
  C   4.29701395296244     -0.98731594715409      4.42279503859120
  C   3.30950373622706     -0.58607603313409      3.32096106256301
  C   5.08839769412852      0.24012202358481      4.89637203315456
  C   2.26139973917123      0.39200951506445      3.93421406266588
  H   1.61989346468522     -0.20187266281585      4.59395267053973
  C   4.11395166781133      0.04589360733215      2.16932535510930
  H   4.83441573139112     -0.69129022949739      1.78754112919636
  H   3.44556676391846      0.31355021510815      1.34734109708923
  C   5.81309177371249      0.86076854131698      3.68008584489975
  H   6.40396624045061      1.72968998397925      3.97999780190500
  H   6.50330242137016      0.10897527023510      3.27171537608892
  O   4.44541343990157     -2.11576211245496      4.84681059126638
  O   1.69251728713204     -2.30815827869807      3.62120190618649
  C   2.61745417269011     -1.84195178566542      2.76457875091082
  O   2.91487330054664     -2.33565396404093      1.69155815497140
  C   6.17102560952682     -0.19392041683156      5.89905299912841
  O   7.35369801103097     -0.24070018711681      5.61116977969818
  O   5.63224092821728     -0.52547157658187      7.08500009780304
  C   1.10124515915270     -3.59625078324011      3.24142253475060
  H   0.64152599764757     -3.51289458979653      2.25277032679246
  H   0.36207902198838     -3.79993421690187      4.01646001863846
  H   1.88696358781269     -4.35605040635910      3.23006031515646
  C   6.58001678543961     -1.09554569996233      8.04923816176658
  H   6.98407715120881     -2.02561240658247      7.64148627319169
  H   5.98587967790534     -1.27891006917722      8.94477733273949
  H   7.38734938546718     -0.38191576972266      8.23556623064592
  C   2.28984997029411      5.51464495331195      4.67952699779599
  H   1.77841191162701      6.37769259881800      4.24117266458107
  H   1.77752929245614      5.18718890259174      5.59045537620638
  H   3.32844831529873      5.76038216356121      4.90020020180011
  H   1.40788386636733      4.20907152407052      3.43510182062958
