84
Coordinates from ORCA-job BUBGAI-CH3OH_2_6_tpss_d4_lanl2dz_631gpol_Mn2.opt
  Mn  3.49336964566273      3.05942952546975      3.17496264206833
  N   1.68497748596136      2.10505480072559      2.26976050681015
  N   4.77457706229399      1.28853407280094      2.42372701478439
  N   4.90835933216705      4.05832407441239      1.84960830879982
  O   2.23319649139244      4.92805429275228      3.45477703940609
  N   2.86045028467479      1.53129846539012      4.67432940926768
  N   4.71172140898652      3.50755703315541      5.01813607180926
  C   1.79040803984848      2.19524152527776      5.54714154547073
  H   1.01458684170544      2.53865596227516      4.85219668984140
  H   2.26958545131975      3.07903008810864      5.98363650987198
  C   1.79325641268210      1.23840344596725      7.89482289666502
  H   2.64652197633690      1.87428317837951      8.13402743055870
  C   1.20211959481472      1.31188068531176      6.61914046657537
  C   0.05191761506770      0.54329340349936      6.35678015645120
  H   -0.45149393461076      0.63469560825265      5.39324856540658
  C   -0.47627302654802     -0.30590694843286      7.33595639197506
  H   -1.37192432649448     -0.88683535026103      7.12532097348243
  C   0.13669236272604     -0.39083999029570      8.59333318561007
  H   -0.27672446410926     -1.04550864758303      9.35749729801030
  C   1.26654956723500      0.38924013424376      8.87505320499305
  H   1.72505521059037      0.34829954630027      9.86098917908629
  C   4.71200471662909      2.50719978419291      5.93610665658532
  C   6.03844492602719      4.85669354726452      6.51541214665380
  H   6.55384307274365      5.79515890897760      6.70235302131541
  C   5.35098894698998      2.63870293325895      7.17307079537690
  H   5.32459921776784      1.81505328318574      7.88146982086836
  C   5.37030175030655      4.65303714592472      5.30716747764772
  H   5.35620629361658      5.41772127949401      4.53361588037050
  C   6.02151893706543      3.83116239945631      7.46903398093037
  H   6.52252042409329      3.95744420219234      8.42624566074556
  C   5.49448546520114      1.78222582567368      1.21253916849163
  H   4.81240457628348      1.65353198708365      0.35996101011375
  H   6.38821822454464      1.17162287538394      1.01253815837362
  C   5.85346516481275      3.24948188529894      1.30368747328500
  C   6.25027770291567      5.98367486880245      1.29156951417162
  H   6.36183636120836      7.06486962136062      1.28949805925168
  C   5.10620224873150      5.39860843335642      1.83444846200204
  H   4.30574616558275      5.99456311926173      2.26841121667764
  C   7.03621858173312      3.76200818751855      0.76340309240586
  H   7.77943462617013      3.08719438337991      0.34463859088772
  C   7.23934870811691      5.14755665892678      0.75753978116838
  H   8.15104616069293      5.56648067391294      0.33740283010271
  C   1.30963486467638      0.94586052049176      2.87197960819199
  C   0.93519344667932      2.57584856905419      1.24563640717708
  H   1.28828449587386      3.49474880413821      0.77809383763914
  C   0.16577517987938      0.24598902648987      2.47464695513513
  H   -0.10425210360592     -0.67367194439627      2.98737534786318
  C   -0.21223064422080      1.92833935569709      0.78556753611961
  H   -0.77813287188812      2.34399976235779     -0.04400357373706
  C   -0.60714674948028      0.74271112022254      1.41860902188158
  H   -1.50052461342228      0.21391043431215      1.09406122158069
  C   4.05623297824679      1.20616914419075      5.50520659434636
  H   3.76230488627227      0.63235765310092      6.39379003580984
  C   4.36313649905504     -0.93048315135445      4.27798841416326
  C   3.28667873472092     -0.55946547221578      3.25215500105170
  C   5.10771897181098      0.32706226485513      4.74276088365679
  C   2.24577836296062      0.39030550671052      3.93521894315340
  H   1.67382739380091     -0.23786055705931      4.63063032144085
  C   4.02425435649490      0.05999466645516      2.04406303669125
  H   4.70367595171351     -0.70098763706594      1.63012345171999
  H   3.30660244261692      0.31931130778309      1.25924328923717
  C   5.76221231066634      0.98193027903095      3.49887912339259
  H   6.27190057138395      1.91033781304254      3.77940296155238
  H   6.52882558230640      0.28483539965402      3.12671707203296
  O   4.62348642919330     -2.06435468368376      4.62910236942290
  O   1.80300179531964     -2.36228588798722      3.71614908535372
  C   2.59410451770573     -1.84221813334473      2.75968651830906
  O   2.77677869472741     -2.31349815073312      1.65145336162926
  C   6.24849475600481     -0.07283402904101      5.69535611202231
  O   7.42666839396421      0.00515110571363      5.39483155762746
  O   5.76441227290100     -0.53271012954046      6.86323880076561
  C   1.23732900286962     -3.67609486991267      3.39413333930814
  H   0.66304043385720     -3.61321905626639      2.46554795148377
  H   0.60374321471041     -3.92070157096335      4.24702463179452
  H   2.05336655574856     -4.39502760616879      3.28442889133446
  C   6.77606334482160     -1.08498459861117      7.76924154930871
  H   7.25285702942451     -1.94297413211055      7.28834874219383
  H   6.21790461284202     -1.38642185318579      8.65600467003760
  H   7.52218912717710     -0.31905347887615      7.99926656306450
  C   1.93090473625688      5.72757606990783      4.64114610676343
  H   1.80440912565817      6.77727572269075      4.35621919303167
  H   1.02788304145330      5.35133245136351      5.13437033242433
  H   2.79125205441202      5.62018035023410      5.30339579147231
  H   1.47015951147510      4.99448270536349      2.84649065818237
