43
Coordinates from ORCA-job AGUGEO-oxo_1_3_tpss_d4_lanl2dz_631gpol_Fe2.opt
  Fe  13.92342843803434      7.51222126157065      6.45123995936228
  Cl  12.68211627505564      5.75005502408459      5.71120612585454
  O   12.72436125393580      8.62971715644405      6.34334899537155
  N   14.63982961095428      7.99020189579252      4.68228828004827
  C   14.59962108166789      7.25057700027076      3.55627471466709
  C   15.14997985486125      7.71882720508367      2.36034481208129
  C   15.76064295476184      8.97628879050053      2.33686667996246
  C   15.80254872277968      9.73791468106778      3.51310016003637
  C   15.22343214376162      9.22056495008646      4.67062758497584
  C   15.13449173656954      9.96043316776446      5.98485879401397
  N   15.19649949732650      8.93196286944216      7.07855747950376
  C   14.60974222541781      9.40165906564966      8.37579179367245
  C   14.08911051449407      8.21085875764715      9.14495359227003
  N   13.57635237100164      7.21930653888677      8.36860789781251
  C   12.98082821328732      6.15342455039154      8.93859516485864
  C   12.88283718517339      6.03304684665115     10.32711076151218
  C   13.42624588893294      7.03451275879038     11.13765718189621
  C   14.03990007860450      8.14190879569247     10.53658276778063
  C   16.59846547863905      8.41334578377219      7.22850581662120
  C   16.63773938241629      6.91031624625171      7.34746538768452
  N   15.58167354241129      6.25964304353918      6.80785101911879
  C   15.59232797085317      4.90937755845587      6.76938973386210
  C   16.65964145340828      4.16326985482807      7.27297048374283
  C   17.74104978841807      4.83328685153689      7.85549732636002
  C   17.73035678948546      6.23241559465846      7.89282167590399
  H   14.09742557515485      6.29118127223194      3.64580265157676
  H   15.09278108731048      7.10112742405648      1.46817785879155
  H   16.19930500848414      9.36232303007688      1.41949181315236
  H   16.26819143474440     10.72063104616312      3.53077607502516
  H   14.15177025917972     10.44058779167106      6.06027100649923
  H   15.92654033362776     10.71339556794168      6.09741018171740
  H   13.75719229258542     10.04185677262958      8.11720225455074
  H   15.33863293609437      9.98668499870346      8.95259398883631
  H   12.58300954445106      5.41643074803950      8.24564875497505
  H   12.38838974792221      5.16509501816504     10.75501806236389
  H   13.37183534733719      6.96061610670762     12.22147765548091
  H   14.46257288706372      8.94473031765333     11.13631909740595
  H   17.08963798302548      8.90197474316529      8.07978107804740
  H   17.14911706302589      8.70032001646364      6.32237053666025
  H   14.70770758171363      4.45361672844869      6.33055143235003
  H   16.62995843932826      3.07829817625541      7.21652204651566
  H   18.57900561973712      4.27953957242354      8.27331815142885
  H   18.55670440696204      6.78925442034433      8.32945316564868
