44
Coordinates from ORCA-job AGUGEO-OH_1_2_tpss_d4_lanl2dz_631gpol_Fe2.opt
  Fe  13.97927831428895      7.48575290569825      6.46417506467724
  Cl  12.59863123287708      5.80767445366007      5.75119719130200
  O   12.69071504348964      8.73153087058316      6.30841298801991
  N   14.68903478546151      7.97307039259347      4.70921229715455
  C   14.66727739537455      7.21549252586812      3.59414824151446
  C   15.20715772519512      7.67713312211659      2.39081420853379
  C   15.78592615406147      8.94912104861779      2.34841779075590
  C   15.80837351000015      9.72985337718851      3.51294315784469
  C   15.24309685823230      9.21556948291426      4.67830107517672
  C   15.13677555085713      9.96310674014452      5.98623187840578
  N   15.18972166101787      8.94022098667600      7.08431235105869
  C   14.57238666036922      9.41473185465103      8.36621839670297
  C   14.05700684185837      8.22611333271549      9.14285667025765
  N   13.57092483175169      7.21319445188707      8.37392476716778
  C   13.00193582575043      6.13906202096771      8.95954449234505
  C   12.89337699772645      6.03641138074198     10.34803053037287
  C   13.40050374184229      7.06558855299915     11.14831912945157
  C   13.99355532734874      8.17712064743137     10.53554512574634
  C   16.58774649843511      8.42362497555520      7.26648700273663
  C   16.63034209653495      6.91531376062507      7.33323605399328
  N   15.55479703590150      6.27435693310251      6.81686977072234
  C   15.55795999505479      4.92408073816168      6.74356973821954
  C   16.64180261625221      4.16640272980533      7.18826741829480
  C   17.74563531815643      4.82190822600984      7.74607272561548
  C   17.73901641218871      6.21932833705200      7.82027850656643
  H   14.18608592480274      6.24660124138932      3.69667798405990
  H   15.16701133855922      7.04467762265600      1.50802520298456
  H   16.21571808216737      9.33175757018089      1.42536685255451
  H   16.24936186477450     10.72412555049523      3.51467495066165
  H   14.15061094188091     10.43609757597975      6.04525865999672
  H   15.92217558549543     10.72258653203906      6.10431588229027
  H   13.71325200241542     10.03252679763308      8.07847275306982
  H   15.27968969125359     10.01907237066287      8.95076601545676
  H   12.63083143499739      5.38006405582267      8.27531341701046
  H   12.42049578257899      5.16082753585139     10.78502742678990
  H   13.33674049326317      7.00711791242027     12.23264912889771
  H   14.39341673601405      8.99789251263826     11.12678936784007
  H   17.04603394702563      8.87801501030902      8.15462352329125
  H   17.17423690713170      8.74571635814019      6.39523917474910
  H   14.65698522192113      4.48218549248074      6.32435057899166
  H   16.60896571664284      3.08316233722589      7.10623677262363
  H   18.59829189870151      4.25728236640366      8.11690074166158
  H   18.58203880785974      6.76300229223375      8.24150883417131
  H   11.83150919248742      8.26043501767147      6.39087616026236
