48
Coordinates from ORCA-job AGUGEO-CH3OH_1_1_tpss_d4_lanl2dz_631gpol_Fe2.opt
  Fe  14.13344030919188      7.31494522853205      6.52345047706053
  Cl  12.64931863269174      5.66228104681250      5.81577196303121
  O   12.46136905170578      8.52754260030980      6.38614255644061
  N   14.75395149679872      7.79907717452905      4.76091743313024
  C   14.74701576954761      7.02401270490206      3.65128457889446
  C   15.28263876390290      7.46763422012084      2.43992624191547
  C   15.85286441618236      8.74304833392482      2.36842998525092
  C   15.87078116933955      9.54285321623823      3.52108614302314
  C   15.30970425435323      9.04559335798260      4.69511225166571
  C   15.22354815786304      9.81327315138838      5.99552098490811
  N   15.28666843535316      8.81068262688008      7.10798674054254
  C   14.69347315788441      9.31274232054164      8.38852302489098
  C   14.19991731061350      8.13067811925736      9.18632322693074
  N   13.71703703165665      7.11255980964847      8.41712712967564
  C   13.18878842338055      6.02547519136547      9.02804050631788
  C   13.11999156529701      5.92008549540978     10.41880961997354
  C   13.62419838102881      6.95800674568279     11.20937842719085
  C   14.17692630942147      8.08146349561569     10.57867077900215
  C   16.69723159901687      8.31031368470264      7.27972350793584
  C   16.73640722099279      6.80485102638842      7.35096818495061
  N   15.63599215035354      6.17738361211104      6.85483801325966
  C   15.62803042631929      4.82204968341973      6.79382617865663
  C   16.71124626038402      4.05783269746595      7.22736075856185
  C   17.83606102406597      4.69942824277696      7.75779793938880
  C   17.84417915483806      6.09782168846409      7.81899954254982
  H   14.27964181606912      6.05018897572450      3.77182958065006
  H   15.25013477569606      6.81552173458994      1.57082407070597
  H   16.28216890708741      9.10968427978353      1.43887042631466
  H   16.31163061500143     10.53750158041119      3.50748493883221
  H   14.25201976907323     10.31616005142375      6.07805180856882
  H   16.01337438316501     10.57422310453637      6.08119811911290
  H   13.83393793792685      9.93659430831631      8.11333936890927
  H   15.40811636347853      9.92861172673457      8.95309183875161
  H   12.81885409307953      5.25426995634920      8.35671838685287
  H   12.68163549158509      5.03164386780793     10.86624238094697
  H   13.59254797141688      6.89690861653525     12.29483783240124
  H   14.58005169029225      8.90930825593047     11.15811723874174
  H   17.16202508543748      8.77192649324924      8.16092681461403
  H   17.26933486268974      8.63441497558704      6.39998798078636
  H   14.71819554970991      4.38353136571543      6.39362644703149
  H   16.65954918154046      2.97444682473162      7.15487972687715
  H   18.68844272940005      4.12699665978732      8.11630707360951
  H   18.70050813336851      6.63697318939600      8.21912687599072
  C   11.94574174523089      8.88805260309426      5.06392048713656
  H   12.62391682386230      9.63979864576693      4.65553783235833
  H   11.91704688057522      8.00078636684198      4.42323906186286
  H   10.94664985966004      9.31783187554556      5.18966749044404
  H   11.86909486247008      7.80172906767064      6.70118802335216
