44
Coordinates from ORCA-job AGUGEO-OH_1_4_tpss_d4_lanl2dz_631gpol_Fe2.opt
  Fe  13.82960768839151      7.33067469530934      6.39176617319670
  Cl  12.48642720752694      5.64429753288202      5.63584874559064
  O   12.52780045642518      8.53951251394145      6.21599800496451
  N   14.80792352480282      7.97577241475208      4.58773014274951
  C   14.86610730529795      7.28529560157246      3.43309752124667
  C   15.40353029804603      7.84639120343672      2.27222566954184
  C   15.89421186190926      9.15677639146051      2.32390996085164
  C   15.82918999975933      9.86874895223976      3.52882628288194
  C   15.26560010270529      9.24615046151635      4.64487073936961
  C   15.06127092410856      9.93209300774610      5.98018251005028
  N   15.10957580254152      8.90941901204826      7.06198039470006
  C   14.52908550586791      9.40785829401161      8.33765596415585
  C   14.09111630617996      8.24856576022403      9.20836345060273
  N   13.59078854793762      7.19339918876886      8.53177779350368
  C   13.07735715702017      6.14218903263034      9.19683936074990
  C   13.04988239972333      6.10349916731682     10.59333035009350
  C   13.58298626532166      7.18424857025506     11.30587051812789
  C   14.11358586624679      8.27526758909721     10.60476045118239
  C   16.48405932304952      8.34555049236963      7.22660547978776
  C   16.50651360492711      6.83284163657817      7.30184936134658
  N   15.44364754530616      6.16775516834808      6.78180740524121
  C   15.45671515787338      4.81610064387359      6.73922688767074
  C   16.53594982039056      4.07297784171495      7.21752258157733
  C   17.62764153769109      4.74922597501608      7.77339265642313
  C   17.61075753032148      6.14775798464995      7.81596331668470
  H   14.45635900431684      6.27828540421731      3.46562423741909
  H   15.43417139061211      7.26728197160287      1.35300876452579
  H   16.32256849105545      9.62057190669919      1.43796389269550
  H   16.19960915202406     10.88933934394228      3.59930921515063
  H   14.05253294278947     10.36363479717858      6.00222909803390
  H   15.80059386554749     10.73137848627457      6.14153935798952
  H   13.63729428093133      9.98928396055494      8.07006679834249
  H   15.23487068983488     10.06544914158821      8.86723211298769
  H   12.68540685000957      5.33891312578893      8.57616090936250
  H   12.62308656016930      5.24454416714010     11.10467046796762
  H   13.58502184984727      7.18082865387471     12.39377235962979
  H   14.52730577576038      9.13350186350083     11.13027876195210
  H   16.97354795065191      8.78175487563293      8.10891902337418
  H   17.07421870976671      8.64623201025681      6.34962393641490
  H   14.56552827842655      4.35819647375715      6.31607330772627
  H   16.50879817713211      2.98799805008064      7.16134125061012
  H   18.47904807151429      4.19942069013339      8.16883930118353
  H   18.44522803680539      6.70394481562762      8.23784427466816
  H   11.71990818343298      8.07598113038910      5.89456120767509
