32
Coordinates from ORCA-job BEFXIT_2_3_tpss_d4_lanl2dz_631gpol_Co3.opt
  Co  5.05298475279634      6.44450743385107      3.49782229218303
  N   3.47201050232015      6.33594469919992      2.55727181996260
  N   2.33452850536251      6.14904837613071      3.01934819116362
  N   1.23542653293638      5.98461157361687      3.34174887520242
  N   6.02228646187029      4.66835030841601      2.96213130826739
  C   6.12814336013224      4.76840291498422      1.46714630654447
  H   5.12750659888752      4.59313568279818      1.05657113562255
  H   6.80893706628175      4.00429616002111      1.06652603740883
  C   6.62050634989261      6.17177370128792      1.09582076594292
  H   7.64832928728849      6.34402148117476      1.43383451829856
  H   6.60187982762087      6.31187798841390      0.00833655721996
  N   5.74117994453485      7.19915359757033      1.76710128946307
  C   5.06898870983621      3.62458569750271      3.45193055362074
  H   5.51620840267072      2.62143710647277      3.39889052022815
  H   4.19639462690041      3.64634702995683      2.78975484333867
  C   4.66167478848536      3.93420431704136      4.89876461427583
  H   3.80256443773689      3.32087771343156      5.19100869590815
  H   5.47299399411956      3.71516261845025      5.59835617771590
  N   4.30373793738389      5.41258156581343      5.04669889704927
  C   7.36957895097032      4.62477647876377      3.63282932143982
  H   8.12722757542330      4.88145534474001      2.88565821134784
  H   7.58581908901565      3.60348672312684      3.97246645790965
  C   7.45784910687445      5.60282567154848      4.81738547921653
  H   6.96074170704228      5.21576135756818      5.71072939270484
  H   8.50695041085813      5.78745523120982      5.07873179178265
  N   6.77403616138642      6.89619643797520      4.45192290102839
  H   4.61079699756411      5.74602551298165      5.96915648120799
  H   4.88238212431242      7.33813808421961      1.21628370678525
  H   3.28044335963877      5.50683115933708      5.07795077816938
  H   7.39745762575970      7.45563184617268      3.85674134384193
  H   6.20909596682758      8.11453055884757      1.79348428646976
  H   6.63913883726962      7.46686562737496      5.29809644867972
