33
Coordinates from ORCA-job BEFXIT-oxo_2_3_tpss_d4_lanl2dz_631gpol_Co3.opt
  Co  5.03269170309725      6.45857019413780      3.53406759922037
  N   3.52217172272987      5.86137717073283      2.46920973195170
  N   2.39783106384837      6.24081986485085      2.84923842805565
  N   1.31271239643350      6.54000225509098      3.11314361363246
  O   4.39321041834385      7.89328969946768      4.04680350875623
  N   5.99755723058736      4.73148431626894      2.99977591073582
  C   6.09474896966341      4.77913946410364      1.48999484953060
  H   5.09440402604188      4.58001832287607      1.09350319552201
  H   6.78377672487960      4.00494135349958      1.12749967983271
  C   6.56308187020296      6.17726128635820      1.09419618431216
  H   7.59056076236361      6.38033317107979      1.41411774879611
  H   6.51457167889335      6.32212100961540      0.00775267643562
  N   5.66420841218050      7.17199129353966      1.78170446068327
  C   5.10044520770793      3.61619229176524      3.48019307720058
  H   5.61632141561349      2.65068109910938      3.39292666119538
  H   4.21962987508883      3.61147885888831      2.83255092754491
  C   4.70413106297963      3.89843220733747      4.92757450095313
  H   3.86220963807274      3.26698483717409      5.23279766434833
  H   5.52639096852773      3.71600532315968      5.62426382437892
  N   4.30607715303448      5.36101415130175      5.04820455778548
  C   7.38220399468160      4.66216775529947      3.62519711498169
  H   8.10827862817347      4.96342268129833      2.86383442936978
  H   7.60741194850039      3.62349655970132      3.89559845466387
  C   7.49618895229541      5.58418619834435      4.84034760506081
  H   7.01627129344483      5.17017770311645      5.73086451895732
  H   8.54997662161304      5.76647430298322      5.08808002498814
  N   6.80109544498089      6.86205877268242      4.50214098575929
  H   4.56387972375141      5.73848889941518      5.96901288018475
  H   4.76891719672424      7.25404709426636      1.27824261695939
  H   3.28403228777926      5.45549024973445      4.99849562586556
  H   7.38879112360370      7.44463178530942      3.89298973300318
  H   6.07785113395255      8.11312307818638      1.81937749826724
  H   6.62686935020871      7.43449674930514      5.33839971106746
