33
Coordinates from ORCA-job BEFXIT-oxo_2_5_tpss_d4_lanl2dz_631gpol_Co3.opt
  Co  4.96370270095332      6.48135264637303      3.60894692092857
  N   3.39644935545523      5.88184697130614      2.62925677367522
  N   2.33649071216640      6.51728467561599      2.59595067566564
  N   1.31129632019087      7.05447819026359      2.51696373581247
  O   4.29692749990051      7.87270624474287      4.15729765645651
  N   5.95865420480974      4.76110621379224      3.03194668520367
  C   6.03067098517943      4.77016796520800      1.52078411203017
  H   5.01519990357551      4.58833205889354      1.15179346101084
  H   6.67681830144147      3.95166552223830      1.17404563090333
  C   6.54285166640857      6.12504004615526      1.03169797935756
  H   7.58889956648923      6.29325291268769      1.30809902537997
  H   6.48254251822481      6.17533891745586     -0.06279092492705
  N   5.72188567917693      7.20559518680191      1.66761878569201
  C   5.12214788545207      3.59865217060949      3.51292029967659
  H   5.64966307588742      2.65620353193781      3.31039107392673
  H   4.19466593075257      3.60838807732272      2.93035684298814
  C   4.81985785787545      3.75323368117013      5.00298564693319
  H   4.06114038433036      3.02278351911312      5.30846096227334
  H   5.70787697461029      3.57678958843178      5.61664325872941
  N   4.33941925964882      5.15598780262075      5.25350886281520
  C   7.35887538523155      4.73332769351825      3.63272624740257
  H   8.05801948892957      5.06311512233288      2.85863187991233
  H   7.62233208951399      3.69913942583209      3.88727092194587
  C   7.47312964117870      5.64724173601141      4.85134812099388
  H   7.00719424385032      5.21966151240545      5.74235391939604
  H   8.52732420497607      5.83963099637499      5.09091310613838
  N   6.75643288007009      6.92028832542511      4.53735660347184
  H   4.60633192217209      5.48356528766220      6.18858562851416
  H   4.88409384871671      7.39417371002167      1.10655548389280
  H   3.31436683055248      5.19162293695933      5.23915150022164
  H   7.31709160030240      7.51477381912110      3.91484074640135
  H   6.23132707185807      8.09614013809517      1.70230236173724
  H   6.59482001011880      7.48151337349990      5.38318601544028
