39
Coordinates from ORCA-job CAHGAW-oxo_1_2_tpss_d4_lanl2dz_631gpol_Mn2.opt
  C   6.47400337179767      0.68909038818146     10.78131948677968
  H   6.74366928221537      0.06239430608793      9.91979484535299
  H   7.28989761404155      0.66810796950688     11.51184691028601
  C   6.19976580464667      2.13239347329459     10.32204395073453
  H   6.15689525013332      2.80419346909777     11.18971550961743
  H   6.98345339578278      2.47188212304663      9.63493547560818
  C   4.39936787701917      3.10097374425667      8.92838303775820
  C   5.17502035413560      4.28448969454646      8.42807959095143
  H   6.24774635644197      4.17722953460911      8.60670169091480
  H   4.82957617667603      5.19289651798823      8.94351499994167
  H   5.01316882871441      4.42695664589422      7.35224775043244
  C   5.06781546020038     -0.71521100943809     12.27510030388969
  C   6.16245468067500     -1.31741110749095     13.10806612773143
  H   7.15416568734884     -0.99947316380471     12.77823957225497
  H   6.11703368010761     -2.41347049181383     13.05397535376335
  H   6.03478259982148     -1.02878137296287     14.16085409175032
  C   2.96250374952104      2.95973524701861      8.64459275649941
  C   2.22033964422944      3.83218709085677      7.83575632864749
  H   2.69370302988989      4.68113975568819      7.34554133188504
  C   0.32350272130893      2.63087018977439      8.22593510961964
  H   -0.74022972576716      2.48257575419176      8.04782098593168
  C   1.03694788003335      1.74858687162870      9.05435508582251
  H   0.55340304496754      0.90203059872862      9.52998928307336
  C   3.65886197271639     -1.06673364934447     12.50816572107706
  C   3.20545539433613     -1.91565453725634     13.52797698349726
  H   3.90716621209102     -2.39241032057573     14.21044149045190
  C   1.46349664092553     -0.72211106899178     11.86322227023538
  H   0.75237622637202     -0.23183481264578     11.20814058903656
  C   1.04362233887185     -1.58311711882492     12.88937222982707
  H   -0.01490723667751     -1.79133234313875     13.03502949422844
  Cl  3.26978906478474      2.34945806332631     12.10869236720971
  O   3.71396174859451     -0.30628983274568      9.16466509569297
  Mn  3.66815528091053      0.78520810526775     10.35142102446250
  N   4.86491226140806      2.16191007215367      9.69705522472773
  N   2.34643485515110      1.91334522139187      9.27183928427483
  N   2.76278339884753     -0.46753854178890     11.66656177101676
  N   5.21645227748056      0.14964921427389     11.31740595602425
  N   1.90509105943406     -2.18365421500887     13.72409298813026
  N   0.90426174081236      3.67601953502114      7.61920793086048
