44
Coordinates from ORCA-job CAHGAW-CH3OH_1_4_tpss_d4_lanl2dz_631gpol_Mn2.opt
  C   6.51240678564451      1.14472433787333     10.95438338344039
  H   6.94100790389770      0.63078124467550     10.08124430288711
  H   7.24639542227372      1.12655972072870     11.76870686266298
  C   6.13146216597817      2.58835333472983     10.59150803174839
  H   5.97105308753297      3.18029375272076     11.50384701839650
  H   6.91329442958840      3.06215543497093      9.98527029751171
  C   4.34002107925505      3.54631999847022      9.18700359987657
  C   5.10390111612612      4.80654278240050      8.89759939065878
  H   6.13627203745288      4.58538785120240      8.59942351307297
  H   5.14140762457385      5.43315074605427      9.80139164494418
  H   4.63796442256225      5.39041595048078      8.09938219414359
  C   5.17114318792549     -0.54305560304088     12.17613022146930
  C   6.35092203500077     -1.13868298627320     12.89287692396062
  H   7.22245109465091     -1.20093299772537     12.23070059998152
  H   6.13172673373492     -2.14497196864825     13.26140418771400
  H   6.62446864935200     -0.51482622987389     13.75721172151482
  C   2.95855854370899      3.33704531614835      8.80908903700889
  C   2.16260061314357      4.19733088252750      8.02598635077127
  H   2.56299028714699      5.14017223402934      7.65702699885505
  C   0.39662746962301      2.75425769718271      8.15572271358517
  H   -0.62789683447221      2.51558118651107      7.87721279835063
  C   1.13731791140968      1.88172675059912      8.95145293947475
  H   0.72376415856391      0.94512140462676      9.31515510534863
  C   3.80085537386236     -0.96765670893023     12.39578513827457
  C   3.36910994768747     -1.93647172214789     13.31948918855991
  H   4.09011387030180     -2.49255392645101     13.91689722396551
  C   1.56542614570327     -0.53220162466691     11.89126562093302
  H   0.83364091372241      0.05729684996249     11.34738822357409
  C   1.18591788882357     -1.50502463114051     12.81650074512333
  H   0.13305203189518     -1.71665986136519     12.99209859861429
  Cl  3.06216013321292      2.69621171119361     12.33685956608118
  O   3.61979387555352     -0.35637418595990      8.78025918247992
  Mn  3.63372677799540      1.20645986581146     10.56863254744129
  N   4.84025912167848      2.53569492556994      9.88035676321068
  N   2.41233849301804      2.16428476087034      9.29430128986355
  N   2.86798324408512     -0.27177809305725     11.64970100906999
  N   5.26396306489644      0.45580867245878     11.32278177226452
  N   2.08003760882044     -2.22388603588237     13.53027166513109
  N   0.89811422933555      3.92326298876236      7.69518292589375
  C   4.25302661627499     -1.65747484808248      8.82927834408101
  H   5.34753131460867     -1.56825029508533      8.86351896228113
  H   3.89293625017152     -2.13014237160687      9.74564878903235
  H   3.95205893055717     -2.26218260535222      7.96564477948299
  H   3.85029424312164      0.07199629472861      7.93211782726294
