40
Coordinates from ORCA-job CAHGAW-OH_1_5_tpss_d4_lanl2dz_631gpol_Mn2.opt
  C   6.36532222584897      0.63889397290950     10.70332370700670
  H   6.56062518690612      0.09313076820290      9.76886547653474
  H   7.24833267191138      0.55543352009865     11.34815647456365
  C   6.09090892787874      2.12115368145813     10.37718960455189
  H   6.01271428191920      2.69201493614015     11.31348327931093
  H   6.91775211904808      2.52557531075605      9.77943672913126
  C   4.41954154603564      3.18412353472448      8.95172725085592
  C   5.24027523823343      4.37902463511690      8.54298566575557
  H   6.24896880836031      4.34543330341494      8.96138230241483
  H   4.75463062023339      5.30191822732834      8.88909851425365
  H   5.31977366440442      4.43600350788779      7.44861574700576
  C   5.10738384377850     -0.74941459136627     12.28672056355077
  C   6.27217847438382     -1.30039190252787     13.06730765979813
  H   7.23147142579009     -0.93743564604761     12.69182706991822
  H   6.27799698400461     -2.39792759118795     13.01734106091608
  H   6.18336343096227     -1.01760376864148     14.12540333110835
  C   3.00293749801822      3.09755361628400      8.50820656156730
  C   2.42204823231422      3.95750535733411      7.56305830714910
  H   3.00334181561303      4.74575288789812      7.08828360747061
  C   0.41550337036398      2.88761880598347      7.76368088663331
  H   -0.62814355716892      2.79997537565710      7.46690088572419
  C   0.96715751436560      2.01439881342147      8.71514989906447
  H   0.38104597122574      1.22669921586162      9.18160125360432
  C   3.73009802155770     -1.16851571776703     12.66748019535227
  C   3.44002870443710     -2.04399413724766     13.72535328627718
  H   4.23286011772966     -2.47070882846072     14.33684323029851
  C   1.46164951783051     -0.99913678151309     12.23584971524833
  H   0.66282078356301     -0.56578148153009     11.63937105196363
  C   1.20290028364609     -1.87878036711164     13.29990158847635
  H   0.18262548491239     -2.16210286964285     13.55237141510341
  Cl  2.93056911317945      2.33841019292830     12.12722336258073
  O   3.22670551243666     -0.37498090538802      9.10768831352822
  Mn  3.27064928879726      0.82027345141238     10.44640977862259
  N   4.79916234057437      2.20880989653623      9.70631906002023
  N   2.24802967719910      2.12925112381435      9.08561255715242
  N   2.71700277669035     -0.65164546165569     11.92639351469325
  N   5.15591496855052      0.07016688134663     11.28918226831262
  N   2.18555169292835     -2.40307222342988     14.04638916872742
  N   1.13609313777932      3.86010936135820      7.18667892498932
  H   3.78306828375710     -1.16568810435604      9.26797673076322
