44
Coordinates from ORCA-job CAHGAW-CH3OH_1_6_tpss_d4_lanl2dz_631gpol_Mn2.opt
  C   6.45593498195074      1.03857620031250     10.82917276266349
  H   6.73356306941895      0.56760532883343      9.87450597108551
  H   7.31705126426705      0.98279073784832     11.50638149334199
  C   6.09060667077200      2.51527203825716     10.57726034819679
  H   5.92675258995001      3.02155032710476     11.53963736151668
  H   6.92045343587701      3.01301070293384     10.05793268506313
  C   4.42485347800331      3.60672662354913      9.18329823782041
  C   5.14606556973268      4.92556063070135      9.07908589920840
  H   6.15426494617786      4.87719623393351      9.49759712835293
  H   4.58510763140742      5.69380433286610      9.63124934594990
  H   5.21748319793553      5.25459816601612      8.03418952009403
  C   5.26919198741823     -0.54629982492612     12.26230732869293
  C   6.47464163439758     -1.07839885170797     12.99778386841345
  H   7.41407348037831     -0.73563304718658     12.55819632172873
  H   6.47226492778269     -2.17618783651293     12.98871712159748
  H   6.44847944204213     -0.75851037411459     14.04941646427609
  C   3.07305980308228      3.48415703772926      8.57200260477130
  C   2.44527159075233      4.52395410504187      7.86754852486983
  H   2.94474043117669      5.47661341979165      7.70206434419551
  C   0.57557348811534      3.24853251020538      7.57129339241533
  H   -0.43259152994627      3.15112995306083      7.17174299769216
  C   1.17996277580970      2.19289379575456      8.27238991657453
  H   0.66499072136526      1.24962838368780      8.44500301764471
  C   3.92651979862061     -1.06647750191439     12.64030092093605
  C   3.70150513718864     -1.88653311701945     13.75812300476408
  H   4.52064217250770     -2.20685641802489     14.39959226885655
  C   1.65336126404640     -1.07727672900858     12.22134600879951
  H   0.82288019792940     -0.72836598820153     11.61223791195755
  C   1.45763808579005     -1.90391465081130     13.33866232981333
  H   0.46073580052597     -2.24228395167240     13.61602275666148
  Cl  2.23255230498769      2.47646073995257     11.99452769201507
  O   3.18448714888935     -0.43659643102560      8.84367398944587
  Mn  3.33421183050507      1.06901458758564     10.48771549065411
  N   4.83869531809822      2.55773153961350      9.82119258360988
  N   2.42102540650992      2.30669297809432      8.76727413571873
  N   2.88122493153822     -0.67320979926948     11.86465905035328
  N   5.26581310806248      0.35247436878074     11.32892578550895
  N   2.47711862711369     -2.31412476261277     14.10948026942942
  N   1.20392181240013      4.41518419293332      7.36293626016081
  C   3.81023876870851     -1.74637498056993      8.80457919376406
  H   4.88600826115203     -1.65998574239091      8.60653921093265
  H   3.64695592805090     -2.18070536461685      9.79225024116867
  H   3.32939063295178     -2.36801676955543      8.04122784832630
  H   3.28547787655609     -0.00159679344607      7.97366639095735
