44
Coordinates from ORCA-job CAHGAW-CH3OH_1_2_tpss_d4_lanl2dz_631gpol_Mn2.opt
  C   6.53807600151647      0.89074140184160     10.65578742672373
  H   6.82092786041970      0.28869556132482      9.77994784008323
  H   7.36295676146152      0.85639657140798     11.37564126588308
  C   6.25431475319800      2.34277156594599     10.22503584179036
  H   6.27346761002277      3.00411874485613     11.10243045175002
  H   7.00933608669133      2.68479909410528      9.50448012152581
  C   4.34833488314816      3.49496371103240      9.19892016693504
  C   5.07463891275253      4.80110788318536      9.06528561526767
  H   6.13149795096569      4.64882166566123      8.81938674157956
  H   5.02325000052322      5.34134529898791     10.02326059966250
  H   4.63070734809348      5.44004279057294      8.29556909563268
  C   5.15109554852931     -0.42165323565233     12.25652408580360
  C   6.24310264690709     -0.85871320672938     13.19173101170064
  H   7.23250459659471     -0.54738601246006     12.84715343078460
  H   6.24914362886150     -1.95190813933837     13.29769919638703
  H   6.07457197969615     -0.42907822171202     14.18934121830769
  C   2.93021234775635      3.33463416196979      8.91615869020506
  C   2.10412516805027      4.26477243960536      8.25782372287297
  H   2.48621739065903      5.24389780174848      7.97385526081741
  C   0.36153753199612      2.79189007259989      8.28149170310519
  H   -0.67106263320441      2.57033033683193      8.01809792015744
  C   1.13881594504924      1.85148430749716      8.96043394010413
  H   0.74302254012441      0.88167256061225      9.24623891266917
  C   3.76398333255560     -0.82256230302921     12.46855088381261
  C   3.31137846315079     -1.66972162629195     13.49443716226962
  H   4.00353105450021     -2.04774150661498     14.24558078878036
  C   1.59148830323498     -0.72319467339245     11.65429131167251
  H   0.88367786795655     -0.32204982629961     10.93617592846624
  C   1.18249538584724     -1.57591324904867     12.68411920069548
  H   0.13889464410703     -1.87202194250909     12.77343583134430
  Cl  3.39072018507560      2.49308464997410     12.15925892805085
  O   3.66075054809704     -0.24988643060271      8.79742551580103
  Mn  3.71191217995777      1.05746316270772     10.37624540908675
  N   4.89331943251455      2.38674107580430      9.66221113662450
  N   2.41257057141003      2.11949316209638      9.31453104906617
  N   2.87442416457756     -0.32998659292673     11.53753807997688
  N   5.28540168374606      0.33452813960078     11.19123639534713
  N   2.03331355353921     -2.05035214579133     13.61532486737251
  N   0.82871603902016      4.01216699778358      7.94346616135477
  C   4.27291906159123     -1.57113969099964      8.82657812514233
  H   5.36628888490174     -1.49517090487934      8.81775955339742
  H   3.93241160022702     -2.03246721646289      9.75422883477194
  H   3.91643660147764     -2.14555791361998      7.96556865329464
  H   3.87677158269903      0.19435168060730      7.95345192392243
