40
Coordinates from ORCA-job CAHGAW-OH_1_1_tpss_d4_lanl2dz_631gpol_Mn2.opt
  C   6.47084970858477      0.68280741325458     10.77473522611162
  H   6.73151917022395      0.09879870755538      9.88150143578719
  H   7.29630103665210      0.62482595805821     11.49195995346800
  C   6.19781756898240      2.14855327505834     10.37728767168916
  H   6.14503876771405      2.77569820941866     11.27769774330377
  H   6.98799837952363      2.52354322779829      9.71692992285083
  C   4.43606732936757      3.04844411828921      8.87451316019186
  C   5.25456810081713      4.10544202558274      8.18958104480899
  H   6.32574872697355      3.96547015651828      8.35588833138488
  H   4.97614273792780      5.09985830389914      8.56751022548182
  H   5.06692531982159      4.09309770022052      7.10840966453329
  C   5.05419439000904     -0.63132735475266     12.34980369814390
  C   6.11923553510515     -1.07073215875960     13.31212598649732
  H   7.10821216813716     -0.69869762396538     13.03451119447683
  H   6.16714054294748     -2.16718050602212     13.35970687125102
  H   5.87975436197305     -0.70291749466023     14.31959695095365
  C   2.98488384405704      2.95345133008098      8.65851970923718
  C   2.24125298739730      3.80832069388923      7.83065693387003
  H   2.73503044772278      4.55667304502615      7.21302597271594
  C   0.29503239195512      2.85963597500222      8.54380693864349
  H   -0.79201911805578      2.81991906657708      8.50335762501211
  C   1.00816870423617      1.98779444732626      9.37963058228850
  H   0.50339736691832      1.26915864585608     10.01642698663969
  C   3.65921697757165     -1.05332927133649     12.51623880252560
  C   3.19256854699219     -1.94456198515515     13.49487744127798
  H   3.86358393862198     -2.33385364972476     14.25902098275342
  C   1.52696270725267     -0.99496123361988     11.60406901911071
  H   0.85412045327857     -0.62242740736284     10.83841450193352
  C   1.10064883266158     -1.89775583858320     12.58725977949905
  H   0.06901058726272     -2.24432358403133     12.60778045303431
  Cl  3.30049044986823      2.27825427548637     12.24959573649096
  O   3.70768321514102     -0.16239143325933      8.96715089839275
  Mn  3.64953990622470      0.85721459479476     10.43833474247151
  N   4.86638048119760      2.19875204188848      9.76022357259960
  N   2.34681029233224      2.01606293302598      9.42427655103410
  N   2.79419432296691     -0.55072580881468     11.57718360911356
  N   5.21460640924871      0.12411021180970     11.29594275386403
  N   1.92026448673902     -2.36456370708682     13.54550782676339
  N   0.90248945602188      3.76167858573437      7.75611227288373
  H   4.01902846762675     -1.07576588501662      9.14761722691013
