29
QM: 8 atoms, MM: 21 atoms
C     0.000000    1.332200   -0.518800
C     0.000000    0.000000   -1.034100
O     0.000000    1.804500    0.725400
C     0.000000   -1.332200   -0.518800
O     0.000000   -1.804500    0.725400
Fe    0.000000    0.000000    2.718300
Cl   -1.669500    0.000000    4.072600
Cl    1.669500    0.000000    4.072600
C     0.000000   -2.559700   -1.495700
H     0.000000   -2.327200   -2.540100
C    -0.000000    2.559700   -1.495700
H    -0.000000    2.327200   -2.540100
C     0.000000    3.727200   -1.266800
H     0.000000    4.008300   -0.234400
H     0.000000    4.480700   -2.026500
C     0.000000   -3.727200   -1.266800
H     0.000000   -4.480700   -2.026500
H     0.000000   -4.008300   -0.234400
C     0.000000    0.000000   -2.573700
C    -1.210700    0.000000   -3.278800
C     1.210700    0.000000   -3.278800
C    -1.211500    0.000000   -4.678500
H    -2.138200    0.000000   -2.745200
C     1.211500    0.000000   -4.678500
H     2.138200    0.000000   -2.745200
C     0.000000    0.000000   -5.379100
H    -2.138500    0.000000   -5.211700
H     2.138500    0.000000   -5.211700
H     0.000000    0.000000   -6.448200
