44
Coordinates from ORCA-job CAVDOS-OH_2_1_tpss_d4_lanl2dz_631gpol_Fe3.opt
  Fe  3.75470233297963      3.05771586394500      3.29714937930753
  Cl  2.33339112024115      2.28871872388570      1.76515194586675
  N   2.48152229891055      2.46849601581026      4.71811670325442
  N   2.63485689395116      4.65778345365648      3.37230350403820
  C   1.46273750034418      3.34658536017069      4.96374022746890
  C   0.45818161461544      3.03799041413328      5.88851618632172
  C   0.50146163212623      1.81633079426777      6.56578303124118
  C   1.55370660481927      0.92929884268708      6.30550828122994
  C   2.52711256558905      1.28983076632283      5.37330368803508
  C   1.53675985950558      4.58160398241441      4.18147390369259
  C   0.60225345208130      5.62365497884230      4.21057800941401
  C   0.79825960429219      6.74285367595913      3.39544898909055
  C   1.93143939975051      6.80228886879307      2.57417161785587
  C   2.83222046868767      5.73614935662782      2.58343509328278
  H   -0.34874124696779      3.74092963183636      6.07332597498200
  H   -0.27488341711033      1.56039952114999      7.28281409682193
  H   1.62336646720478     -0.03211369040541      6.80710954866130
  H   3.35103919047211      0.62951184449549      5.12846326465953
  H   -0.27171285915436      5.55721370779870      4.85183581957364
  H   0.07409541200994      7.55400216221748      3.39977077432477
  H   2.11954773506257      7.65397747880523      1.92594734252045
  H   3.72750838844482      5.71736925811496      1.96918745724417
  O   4.88350614773620      3.77575381696633      2.13677167746458
  N   4.97768794995667      3.59907496296957      4.71839183357513
  N   4.83130269737476      1.39135644965510      3.35123911063458
  C   6.00120892220729      2.72302798162840      4.94757164878810
  C   4.92567351124196      4.77334224911497      5.38186035032544
  C   5.92270409557612      1.48043543012641      4.17364695596948
  C   4.64521595529524      0.28946794257792      2.59220172720802
  C   7.01228190173382      3.03570344311927      5.86422687241989
  C   5.90538222612497      5.13616023182937      6.30589840099174
  H   4.09276839457629      5.42604774134610      5.14710008357964
  C   6.85550262284723      0.43903890925621      4.23958967046399
  C   5.54388477496604     -0.78077380599686      2.62317953494544
  H   3.76399458826424      0.28512598840319      1.95760843895931
  C   6.96657499972649      4.25423432208527      6.54815482711582
  H   7.82717847141397      2.34003818579383      6.04042783103056
  H   5.83463286633206      6.09370014073050      6.81462908197836
  C   6.66727783424678     -0.70340864782394      3.45378387557120
  H   7.72056384385618      0.51929534748888      4.89107629382989
  H   5.35629546564339     -1.64965492980431      1.99803723397928
  H   7.74850215446828      4.51090145859991      7.25897377250609
  H   7.38765645962456     -1.51718936539179      3.49221434615579
  H   4.71520909893168      3.42373113579690      1.22848159362018
