42
Coordinates from ORCA-job CAVDOS_2_4_tpss_d4_lanl2dz_631gpol_Fe3.opt
  Fe  3.68010357413559      3.00130535537297      3.57740103005715
  Cl  3.58930003533141      2.94767736873064      1.38368280263623
  N   2.20185809277520      2.28770564641111      4.76466824617435
  N   2.56147926380871      4.59742645707936      3.62954641409154
  C   1.17618646919541      3.17644946336102      4.95341215304877
  C   0.05564847942102      2.83194168701856      5.71605363212448
  C   -0.01439139584440      1.55969551483434      6.29590082512980
  C   1.04293231769325      0.66184037368682      6.10619547581571
  C   2.13426067190320      1.06345838092027      5.33459465451022
  C   1.37211097820372      4.47427455300254      4.29346104232732
  C   0.45529689273970      5.53229793000243      4.29758184461133
  C   0.76180233687253      6.71079606500868      3.60878267871881
  C   1.98142173125203      6.81397163981710      2.92559213244198
  C   2.85993905664484      5.73186406118220      2.95315931273551
  H   -0.75429703256148      3.54126337532424      5.85900691280297
  H   -0.88118097373187      1.27772298072373      6.88898801475513
  H   1.02940695894324     -0.33180995012841      6.54574202627749
  H   2.97906204787779      0.40447435098959      5.16202657651357
  H   -0.49043649689726      5.43658105153074      4.82269330647715
  H   0.05200879936966      7.53466238623999      3.59859300042597
  H   2.24721512142420      7.70697673918928      2.36658851074178
  H   3.80516532310252      5.73782408044337      2.41699412520104
  N   5.19605066881557      3.74737023564315      4.68957213939452
  N   4.81021410096753      1.41025344818695      3.62386874532026
  C   6.23404078819454      2.86908790628567      4.86159836168722
  C   5.27369075775364      4.98282314344135      5.23458664450521
  C   6.02374507348411      1.55605603206466      4.23761497406848
  C   4.49294099748394      0.25588480714362      2.99108596475706
  C   7.37668493830209      3.23588053709916      5.57959256679355
  C   6.38690653864206      5.40594666994014      5.96180437397739
  H   4.41894704399786      5.63281343093758      5.07884149806988
  C   6.94839027605272      0.50507619481901      4.23092799077107
  C   5.37757473916431     -0.82127573571810      2.95621236533307
  H   3.52720825762051      0.22925750695702      2.49370510876024
  C   7.45685660722494      4.51929536025630      6.13264622792117
  H   8.19551545590493      2.53429024943780      5.70932947353986
  H   6.40723049717150      6.40766133617625      6.38237533382741
  C   6.62358999581092     -0.69264015603691      3.58495496644780
  H   7.91372946080206      0.62058682990437      4.71476592639403
  H   5.09506260621646     -1.73030450116128      2.43234003535560
  H   8.34072099254493      4.81829062295093      6.69119329323890
  H   7.33890795218607     -1.51155342906851      3.56621929221863
