43
Coordinates from ORCA-job CAVDOS-oxo_2_4_tpss_d4_lanl2dz_631gpol_Fe3.opt
  Fe  3.71998144864373      3.03494442061108      3.17260818367204
  Cl  2.24808637305655      2.15874459340662      1.78288424408517
  N   2.48059041812541      2.41834222341143      4.69107797514356
  N   2.61411484227542      4.62790184269584      3.31849001473525
  C   1.53734632030100      3.34546448823294      5.02585196791798
  C   0.57416392724857      3.07614423981099      6.00616117446887
  C   0.57853007193514      1.82980428383956      6.64167734193568
  C   1.54348034811832      0.88330682361296      6.27953444382019
  C   2.47941336408318      1.21584717670494      5.29595669420908
  C   1.61198495515017      4.58995457631988      4.25058810848991
  C   0.74490795356942      5.68158477382666      4.37899188297373
  C   0.90214064951359      6.79101227573168      3.54056861864672
  C   1.92552019036401      6.79484829824956      2.58173224745496
  C   2.77007006303203      5.68941192570916      2.49347059949129
  H   -0.17490374601960      3.81932745016047      6.26328043353659
  H   -0.16613362129307      1.60062222207421      7.40015483191881
  H   1.57337033695453     -0.10057492864016      6.73989400868369
  H   3.23581301668522      0.50864644486961      4.97152436496986
  H   -0.05133946203515      5.66124310698206      5.11706333061713
  H   0.22668185502054      7.63877558876811      3.62966666077905
  H   2.06836214176896      7.63212268728569      1.90392194209523
  H   3.57590341529131      5.61397189342760      1.76826584667762
  O   4.68612554746012      3.67901013605937      2.00070590006993
  N   4.94645730770577      3.63954715364914      4.61541618888002
  N   4.86659811699815      1.41099845202005      3.27380830053958
  C   5.89861078086753      2.72708163588260      4.97077677293325
  C   4.91168223141339      4.84824980534009      5.21306976919160
  C   5.86802961285959      1.48124042388291      4.20238643478724
  C   4.77616781604467      0.34366676176763      2.44956384493269
  C   6.82766105598451      3.02394991101905      5.97591149246347
  C   5.81791565614883      5.19821811867050      6.21512161263126
  H   4.15316929865761      5.54245909291920      4.87270857023351
  C   6.78403552688764      0.43230114998419      4.34098099944666
  C   5.67018957324243     -0.72556178519191      2.54254994799258
  H   3.97881752498374      0.36319061033904      1.71374110127255
  C   6.78809074045176      4.26957484285376      6.60750206293526
  H   7.58042720734069      2.29227941360559      6.25368549630614
  H   5.75767702321236      6.18485508970631      6.66648230920111
  C   6.68484291882330     -0.68442043012323      3.50465748908379
  H   7.57552315165039      0.49303750307288      5.08193076871734
  H   5.56276441953014     -1.56521850678889      1.86101010300287
  H   7.50848993103963      4.51263551114602      7.38485246897842
  H   7.39633969690832     -1.50154129690531      3.59727345007815
