43
Coordinates from ORCA-job CAVDOS-oxo_2_2_tpss_d4_lanl2dz_631gpol_Fe3.opt
  Fe  3.78829110322141      3.08956060780065      3.16766213362930
  Cl  2.20931218961357      2.16116823521332      1.92562586371757
  N   2.55404909409327      2.50873331617432      4.72968061274905
  N   2.61272446991892      4.65668154952922      3.26608156259807
  C   1.58577666986584      3.41967834824524      5.02846298516905
  C   0.65670145359016      3.16811787614071      6.04674031525994
  C   0.72361726750861      1.96241330587996      6.75069890242939
  C   1.71623953342195      1.03213268930283      6.41981974429794
  C   2.61759678813587      1.34245487645936      5.39880092785224
  C   1.60131493104995      4.61912580169473      4.18410450483392
  C   0.66899140176056      5.66253205632920      4.24762209401982
  C   0.77054642773676      6.73331786821897      3.35372934957138
  C   1.80757590569891      6.74400553910530      2.41285583308225
  C   2.71437180412582      5.68269377824572      2.39317821203265
  H   -0.11115362160316      3.89912360882739      6.28220143858775
  H   0.00553099929641      1.74963846643711      7.53898997405760
  H   1.79036175843066      0.07502698490278      6.92910067359284
  H   3.38994650404591      0.64563064919636      5.09100986261099
  H   -0.13599981564652      5.63101092032738      4.97574996282296
  H   0.04456187848136      7.54219815879210      3.38747077910368
  H   1.91824271764915      7.55255930547873      1.69527122605303
  H   3.53298464918064      5.62712703215820      1.68187613317025
  O   4.79812247688139      3.80716871329256      2.16456248096439
  N   4.93974381069164      3.58171060423935      4.68007216554239
  N   4.88139629923608      1.43535956524526      3.21544292836394
  C   5.87986082310838      2.64901589468740      5.00494165959241
  C   4.87084885271892      4.75721410596761      5.33469104424757
  C   5.86506163407354      1.44770822845140      4.16707544411474
  C   4.79597535602302      0.40954787258141      2.34347660502589
  C   6.77465112933753      2.89473996633413      6.05508549023471
  C   5.74394035743914      5.05270263202416      6.38275552294180
  H   4.11951997543294      5.46188310473894      4.99784145694789
  C   6.76927001896569      0.38581261350120      4.27565108783903
  C   5.67894168509788     -0.67346457538115      2.40209898175652
  H   4.00783994345247      0.47050039013202      1.60018404750024
  C   6.70597051846408      4.10429519091445      6.75126649735528
  H   7.52076197921109      2.15076119155077      6.31815535660351
  H   5.66929778534077      6.01415367407734      6.88367980868022
  C   6.67546129968947     -0.68853320469206      3.38329319345397
  H   7.54479549325779      0.40099616007009      5.03578500953622
  H   5.57770977740193     -1.47969234404664      1.68056438601181
  H   7.40019481394494      4.30708335213166      7.56327220868790
  H   7.37675186065515     -1.51689411027957      3.45087153335771
