48
Coordinates from ORCA-job CAVDOS-CH3OH_2_2_tpss_d4_lanl2dz_631gpol_Fe3.opt
  Fe  3.68813023330811      2.90825458452567      3.49313217657384
  Cl  2.28048470466954      2.08734180217288      1.96912464831488
  N   2.43483547882084      2.40957096904150      4.87278323847815
  N   2.60556806243925      4.53016016319166      3.46373468245757
  C   1.39656305015797      3.27826571444822      5.06191816968900
  C   0.37493533844887      2.98375572484643      5.97192389001720
  C   0.41990118546400      1.78587782697908      6.68951523320334
  C   1.49168420673256      0.90785244325853      6.48507755613494
  C   2.48253064327059      1.25215873851421      5.56568401618645
  C   1.48432683679353      4.48633697918565      4.24358093026147
  C   0.54684785578466      5.52509513258905      4.21537163304498
  C   0.76637357077379      6.61918211743713      3.37344821676275
  C   1.92413317917078      6.65470935463360      2.58564497287635
  C   2.82176306972258      5.58847349641423      2.65333631308363
  H   -0.44736012925738      3.67920992417225      6.11232229943708
  H   -0.37065242313223      1.54000290645211      7.39434176653079
  H   1.56225796169071     -0.03565951988931      7.01917375686214
  H   3.32113282568378      0.59795214161593      5.35712965689384
  H   -0.34559270105181      5.47671373953085      4.83251718856321
  H   0.04310219189170      7.43003324825015      3.33179150259798
  H   2.13131864083978      7.48882526891961      1.92082779578997
  H   3.73330020390065      5.55853904919615      2.06644402866899
  O   4.97267905374055      3.66328999581987      2.11299534134194
  N   4.94073040579431      3.50056411936878      4.88294412007344
  N   4.84470087927218      1.29878509566656      3.53658540403277
  C   5.93327475246972      2.61256756626795      5.19848501159007
  C   4.86587705122209      4.68150482666874      5.53796334201623
  C   5.89104443570460      1.36832479453022      4.42066172391394
  C   4.70697324566579      0.19793890427823      2.76103002614177
  C   6.88050971238983      2.91504078207144      6.18555427398235
  C   5.78324716946054      5.03780738660867      6.52609901027739
  H   4.05601532472389      5.34133600932106      5.24681851647692
  C   6.81551488168227      0.32315646190797      4.53697048445931
  C   5.59962103536620     -0.87500127489736      2.83557593583909
  H   3.85475463667700      0.19815326489581      2.08739770607124
  C   6.80657368369162      4.13949205271559      6.85580640889247
  H   7.66431253742474      2.20394113537268      6.42917521338059
  H   5.69095267268784      5.99948824165628      7.02347398566841
  C   6.66987994762616     -0.81360713074476      3.73486772873876
  H   7.63849853715542      0.39456149216352      5.24211111421449
  H   5.44541304294005     -1.73945024810583      2.19520274749858
  H   7.53544150158989      4.38692450464685      7.62397592493353
  H   7.37941033072900     -1.63389220060705      3.81383758083042
  C   4.91687120431061      3.32755586339390      0.67251195539646
  H   5.71067348291036      3.89563741306732      0.17906059043568
  H   5.04404965920599      2.25010922535290      0.53643740384371
  H   3.93208764429400      3.63946491203591      0.32815121200580
  H   5.88921918514284      3.49966500105899      2.41949356551583
