44
Coordinates from ORCA-job CAVDOS-OH_2_3_tpss_d4_lanl2dz_631gpol_Fe3.opt
  Fe  3.76669614556490      3.05973469486094      3.29387952432142
  Cl  2.32425232473836      2.29762031773491      1.76547169652785
  N   2.48997152948955      2.46296736913099      4.72204495201249
  N   2.63310362666086      4.66067765623890      3.36961708663626
  C   1.46515734386612      3.33701181634971      4.95859152185992
  C   0.45322302533977      3.02027567930280      5.87209775680627
  C   0.49495735968239      1.79647665494379      6.54625553112665
  C   1.55387243585480      0.91494094422628      6.29563203929657
  C   2.53476390354976      1.28254303183129      5.37450722405915
  C   1.53688779208034      4.57523200207701      4.17983634397514
  C   0.59998787207403      5.61482836907885      4.21357354199696
  C   0.79209983908696      6.73832653944264      3.40282693846286
  C   1.92349453957074      6.80472685924837      2.58057874840980
  C   2.82742330395687      5.74050571635075      2.58418815718685
  H   -0.35968416720342      3.71799674964040      6.05010877837836
  H   -0.28849176775136      1.53494062841731      7.25349633446939
  H   1.62291429455297     -0.04712633532206      6.79598080156510
  H   3.36408731252209      0.62677232261904      5.13603573986174
  H   -0.27288189331329      5.54378871362970      4.85582787266246
  H   0.06557644775184      7.54734308078553      3.41175826286546
  H   2.10893070016121      7.65938268148066      1.93554447973600
  H   3.72177440254984      5.72445578273776      1.96861800559032
  O   4.87506057279339      3.78301304152881      2.13262117566346
  N   4.99441233938390      3.61231577197096      4.71693187712110
  N   4.83260254165823      1.39400385104383      3.35979418404949
  C   6.00629972710570      2.72625926125187      4.95539297480472
  C   4.95445697971875      4.79536129442263      5.36389794058518
  C   5.92117106001395      1.48063430200671      4.18620550628169
  C   4.64031754614734      0.29357742807651      2.59972686862498
  C   7.01681401688193      3.03591883328165      5.87364323075748
  C   5.93439544622073      5.15505777171322      6.28937850804649
  H   4.13072182124257      5.45554397349433      5.11714377805742
  C   6.84587748436636      0.43291174509587      4.25766637401235
  C   5.53291749362013     -0.78109890568639      2.63600105890665
  H   3.76043006421719      0.29649732142296      1.96320209053596
  C   6.98230575024863      4.26168778495774      6.54571637836485
  H   7.82324974239013      2.33294186047218      6.05982476814718
  H   5.87366813129115      6.11836560601394      6.78842718747761
  C   6.65246667775326     -0.70940565592212      3.47233462923187
  H   7.70968044327771      0.50801234476375      4.91143763723302
  H   5.34448051780809     -1.64908238561409      2.00985107739915
  H   7.76416591784332      4.51558113497394      7.25762041470752
  H   7.36772175436215     -1.52753397517356      3.51454828487512
  H   4.67249760086996      3.46201632109953      1.22036271730959
