48
Coordinates from ORCA-job CAVDOS-CH3OH_2_6_tpss_d4_lanl2dz_631gpol_Fe3.opt
  Fe  3.62843231006791      2.84096497083963      3.23887694601335
  Cl  2.33993843513435      1.97362836478496      1.61753449620123
  N   2.30692656126634      2.36554874591495      4.83887236656531
  N   2.47102066082420      4.61098565986956      3.43984172902801
  C   1.36279659509116      3.30629528409899      5.12415852423126
  C   0.39535399757812      3.06893465140237      6.11002337401636
  C   0.39706480505173      1.85060729492160      6.79671664201796
  C   1.36750040684420      0.89083927712394      6.48609468753456
  C   2.30709333447775      1.18928056990935      5.49797274743676
  C   1.43219427707174      4.54307501374980      4.32041998597486
  C   0.50347240740591      5.58899987428558      4.40771947257159
  C   0.64525183572992      6.70571476572915      3.57689743932288
  C   1.71194897005933      6.75701354663956      2.67087473979627
  C   2.60401664480672      5.68454455513644      2.63121491020445
  H   -0.35485871690385      3.81937453051452      6.34016436422342
  H   -0.35250257671342      1.65409881849546      7.55969291826483
  H   1.39727949370666     -0.07143460130283      6.98990886098390
  H   3.07574233092596      0.47881909219074      5.20916711191416
  H   -0.32824648575472      5.53352335994910      5.10327829798511
  H   -0.07324920003383      7.52015555260455      3.63312227866379
  H   1.85025997450930      7.60307720406207      2.00317956243508
  H   3.44684715447882      5.65785027018232      1.94642900950999
  O   4.97871339977388      3.77198987907486      1.88308791449767
  N   5.06099437667793      3.50638083805962      4.72430045469352
  N   4.89936729774668      1.14676791701978      3.52217319457062
  C   5.93658661535442      2.55936556392583      5.16907715362009
  C   5.02446391239891      4.71214480784795      5.33228260700817
  C   5.90412410917611      1.27504512319355      4.43845968838937
  C   4.79306470309254      0.00712852341086      2.79854654976014
  C   6.79263010826913      2.81847875140757      6.24900126415570
  C   5.85594632979960      5.03787644734051      6.40523188932206
  H   4.30613858847629      5.42329085845280      4.93503421076434
  C   6.83009846099471      0.24267315147558      4.63676589321709
  C   5.68231830691174     -1.05818753313828      2.95579415177574
  H   3.97004479407601     -0.02891840514094      2.08997179431552
  C   6.75325173648675      4.07000706611010      6.87242342259950
  H   7.47666346383303      2.05588068975665      6.60908965091280
  H   5.79634075445291      6.02326989195677      6.85953177795032
  C   6.71756985351589     -0.93598701413789      3.88970124555945
  H   7.63854266779400      0.35370016002596      5.35319482562518
  H   5.56021979548685     -1.95560230358189      2.35513587021646
  H   7.41265732207113      4.28247560963024      7.71079092684936
  H   7.43231057213328     -1.74286200490863      4.03470689653687
  C   5.22584937712482      3.40981648801420      0.47457042179503
  H   5.75990466768277      4.23538870015861     -0.00400962114704
  H   5.80656859078750      2.48326078028389      0.43107138445094
  H   4.24156473050579      3.26957534585119      0.02848045428863
  H   5.82369224975277      4.03115386680906      2.30543551337704
