55
Coordinates from ORCA-job CEPJAL-CH3OH_2_4_tpss_d4_lanl2dz_631gpol_Co2.opt
  Co  5.43591866933474      6.32077060715432     13.96823443435207
  N   5.22386699638260      5.45510660956075     12.03642601958055
  N   3.93686095628574      7.63871726170338     13.08475281045176
  N   6.82007900767145      7.89894150533949     13.39630412886391
  N   5.67927350792083      7.35722511491896     15.82839379762744
  N   6.91494711237663      4.90400230731276     14.55535463857198
  O   3.88784065786438      4.96596208471009     14.62508980147453
  C   6.07556916303807      4.60380091078997     11.41920127977104
  C   5.85231238936611      4.11945679030466     10.13065348895502
  C   4.70169024422515      4.53583726154433      9.44798822833476
  C   3.81940593373808      5.41955864512487     10.08062235042815
  C   4.10479578052967      5.85589483273691     11.37834124525464
  C   3.17037432051675      6.76664993185252     12.14809331632241
  C   4.72495944469134      8.65284211148897     12.31095423149009
  C   5.95072844487168      9.08528291840257     13.10764256256289
  C   7.64248712780925      8.14844618479805     14.61278591023674
  C   6.77712167143861      8.15815213069745     15.85552593720659
  C   7.10970353741486      8.91761735799400     16.98178244648799
  C   6.30232423155876      8.84097363712413     18.12201829113888
  C   5.17737421844507      8.00674149299650     18.09943078107387
  C   4.90559988760564      7.28855817792897     16.93551791302451
  C   3.00818911660451      8.30247449033192     14.03640230004551
  C   7.70406829261243      7.58102377105040     12.24408596185595
  C   7.68907555016052      4.15404889101479     15.00588175036293
  C   8.65690549634629      3.21572051893661     15.56664214790651
  H   6.95523265435092      4.31883398601963     11.99092659714828
  H   6.56543410997785      3.43833019277663      9.67361618983226
  H   4.49792951093865      4.18433479173118      8.43902011871632
  H   2.92069156633890      5.76820769505660      9.57659155994362
  H   2.55865301379443      7.36862264464744     11.45877248016764
  H   2.48934710723634      6.15614744922347     12.75566407125024
  H   4.09621789597473      9.52211640404940     12.06712273963581
  H   5.03122158777260      8.18994438990040     11.36556181331515
  H   6.51966094364882      9.85123996374933     12.55970604322478
  H   5.64494176537193      9.51847192378464     14.06728944808088
  H   8.20358058040367      9.09133885739440     14.52250895845845
  H   8.37624124045527      7.33335966375881     14.68235631891718
  H   7.98805037779534      9.55917678548148     16.96207551103250
  H   6.54299560159144      9.42426479462567     19.00791561329292
  H   4.51949110429894      7.91732063550064     18.95990857685042
  H   4.03782285401528      6.63619973310574     16.87611462744222
  H   2.25817238914610      8.90750711252215     13.50513923672336
  H   3.57674694923205      8.94740298484735     14.71235466303994
  H   2.49273542985358      7.53702590872865     14.62625394573385
  H   8.42688467015095      8.39079078212456     12.06352070261102
  H   7.09639612307272      7.43520720640268     11.34700953837655
  H   8.24395057285530      6.65298273354106     12.45893934013668
  H   8.31936345724569      2.18603925780343     15.39315923253982
  H   8.75554514350800      3.38429356272991     16.64641387175871
  H   9.63453065209891      3.35743555673151     15.08887432583070
  C   3.96979097538919      3.51191018211527     14.50090788562142
  H   2.96375480464720      3.10089264509297     14.36981526934684
  H   4.45320136192791      3.08121381101402     15.38442151840195
  H   4.57069877268247      3.32848735346244     13.60942572491731
  H   3.31353502541519      5.18110544626058     15.38551830427118
