51
Coordinates from ORCA-job CEPJAL-OH_2_5_tpss_d4_lanl2dz_631gpol_Co2.opt
  Co  5.23353361856394      6.16171609294167     14.02025976727372
  N   5.11237901461612      5.40548101636999     12.05629590758576
  N   3.84271119955017      7.56200830529790     13.10190410127872
  N   6.69196515963578      7.78028043779965     13.42981908324585
  N   5.60764317904355      7.23624352299703     15.82503414634472
  N   6.92396376834901      4.92881948491978     14.53546683523165
  O   3.90363100156116      5.19378105766902     14.77781446187159
  C   5.96850521816110      4.54160125331434     11.46282824849672
  C   5.74681590579405      4.03865331263386     10.18156170239602
  C   4.60072686423547      4.44932371792660      9.48727679862647
  C   3.71332677396294      5.34248691387412     10.10137785163549
  C   3.99264572185110      5.79633642091904     11.39286358964265
  C   3.06180658607570      6.70250514172802     12.16740169193979
  C   4.62044956290624      8.59715757283249     12.35272482635968
  C   5.85157341264017      8.99042656470455     13.15650989027568
  C   7.55485639963934      8.01907236312633     14.62230859528282
  C   6.71274023258813      8.01819253679247     15.87590561477321
  C   7.04904336178581      8.73627479537133     17.02629676340281
  C   6.22971189242192      8.62699873592769     18.15708427111668
  C   5.09683999080085      7.80480914679506     18.10247799501647
  C   4.81628569868492      7.12414453779949     16.91690027119916
  C   2.94441386434570      8.16706223314100     14.12510568860404
  C   7.54141205081820      7.43477318399678     12.25815496196018
  C   7.61938929332891      4.15505529491625     15.06683578447501
  C   8.48999459512854      3.19030868754666     15.72969471885039
  H   6.84311910303916      4.26363671595403     12.04440439758725
  H   6.45786083946228      3.34565173766015      9.73964902393266
  H   4.40170897025617      4.08292872732309      8.48264604920304
  H   2.81532148559677      5.68065353031666      9.58936292480139
  H   2.45166394306123      7.31741725490354     11.48937872403268
  H   2.38329081857420      6.09326590186516     12.77989613369219
  H   3.98884058162174      9.47540801119999     12.15560632572456
  H   4.90871843848055      8.16790156758729     11.38640960566286
  H   6.44158540058806      9.74926846800221     12.62139330077727
  H   5.55498703752395      9.41447717121290     14.12273569775766
  H   8.11180783695358      8.96208156842633     14.51488567830589
  H   8.28695771237678      7.20209107228662     14.66449087942872
  H   7.93399985433630      9.36876665709774     17.03446123631464
  H   6.47054608063255      9.17766323126122     19.06369126430464
  H   4.43709095411006      7.69201789821149     18.95887029258386
  H   3.95662371423759      6.46852855184323     16.80824906215616
  H   2.15021515841698      8.75129729606744     13.63790047494740
  H   3.52409725974433      8.82348015438309     14.77934534219871
  H   2.50257085146928      7.36222731917424     14.71913068225965
  H   8.27897431380713      8.22864497622879     12.06816771047434
  H   6.91583869621639      7.30655168802020     11.37169977192069
  H   8.06520443048865      6.49643136655049     12.46545159746764
  H   8.22879211483099      2.17350466599946     15.40990039809305
  H   8.36694787487130      3.26944053356531     16.81735134616834
  H   9.53675027536354      3.39209759151953     15.46867737653990
  H   3.79248188745118      4.22474401199811     14.66907113677822
