51
Coordinates from ORCA-job CEPJAL-OH_2_3_tpss_d4_lanl2dz_631gpol_Co2.opt
  Co  5.39534600530773      6.29303188333383     13.94019102181947
  N   5.12418032965966      5.46633157298789     12.15675749750196
  N   3.84926066137215      7.64036131083886     13.11816082644908
  N   6.68056938128661      7.81721011541765     13.37586104519840
  N   5.64368707755861      7.13208204212797     15.70289586315016
  N   7.17712537262243      5.04323435132208     14.40904417060383
  O   4.21878787232948      5.17253463130231     14.66402275215744
  C   5.98023291137452      4.57978503344278     11.59272507651822
  C   5.74238914574456      4.01729408532293     10.33951542383119
  C   4.58460330786416      4.38336050948569      9.64190736922856
  C   3.70033943256564      5.29734816663733     10.22733566240327
  C   3.98827381503865      5.81686607032214     11.49194717131619
  C   3.05869523560200      6.75400263408283     12.22869582558793
  C   4.59433743936807      8.67026925527241     12.33974518937740
  C   5.84748884182269      9.04595566829679     13.11537862525371
  C   7.55323074256591      8.06426795811723     14.57345078071752
  C   6.70318867982809      7.97846661657119     15.81231817149832
  C   6.96956573193457      8.65107676431071     17.00554276836840
  C   6.13756050525602      8.42677450040262     18.11110084855718
  C   5.06496467993983      7.53476086116226     17.99073934164088
  C   4.84373733195886      6.90189012414808     16.76627593509939
  C   2.98608835890835      8.23549487929506     14.17200867186365
  C   7.53166471253824      7.49058690578623     12.19376882266492
  C   7.71691116712120      4.23069184296952     15.05397231053640
  C   8.39353777728066      3.21845792863557     15.85810704166220
  H   6.86026851747929      4.33282062374346     12.17770076150756
  H   6.45481236443424      3.30929137184775      9.92446776544533
  H   4.37319867395654      3.96625379458702      8.65994505347241
  H   2.79162428372866      5.60516107419449      9.71510242750580
  H   2.44493379162868      7.33376872903418     11.52291505811560
  H   2.37571925685747      6.17522582150826     12.86530171421073
  H   3.96860893862057      9.55721142484212     12.16197873534618
  H   4.85368303852689      8.24189246506208     11.36419390346889
  H   6.44944680434527      9.78808176894474     12.57300233437479
  H   5.57874601687053      9.47067640003806     14.08919081144360
  H   8.06153984919063      9.03418289164040     14.48082760005088
  H   8.31635285411222      7.27656160968235     14.58836446918693
  H   7.81367579309604      9.33396180611766     17.06738591992789
  H   6.32606140715638      8.94149999544096     19.05056193504956
  H   4.40234327832238      7.33003182574456     18.82741968435826
  H   4.03769056454759      6.19208809869326     16.60123658724135
  H   2.15965717839391      8.80431885931994     13.72084438638348
  H   3.57861185687979      8.90512038568902     14.80145349739031
  H   2.58534256006826      7.42594151837870     14.78858234135269
  H   8.25920815010160      8.29567017718423     12.01993112258209
  H   6.90158498480431      7.37426703808037     11.30879024198622
  H   8.06186254503356      6.55468063726935     12.39078516198344
  H   7.64930952478084      2.62889628280223     16.40874171968321
  H   9.07124729595335      3.70222513155765     16.57264936817368
  H   8.97341044463202      2.55044374809926     15.20878143434097
  H   3.89765350962993      4.50128080890552     14.02110775241162
