50
Coordinates from ORCA-job CEPJAL-oxo_2_4_tpss_d4_lanl2dz_631gpol_Co2.opt
  Co  5.37498896765807      6.30352259953001     13.96213346738882
  N   5.18318543930437      5.49527193199904     12.12255229969795
  N   3.82518666307251      7.61002690832470     13.12759075874125
  N   6.66517796468502      7.83846813796365     13.37892081900385
  N   5.64898199412664      7.20198807231848     15.72971251897406
  N   7.11838245628725      5.05268296193147     14.46438710583602
  O   4.25757255855013      5.28597405627175     14.58081296673389
  C   6.05558725002586      4.62531972583408     11.56578517990212
  C   5.81918034550998      4.04420143674730     10.32083748278918
  C   4.64327646302458      4.37291597963334      9.63457873464673
  C   3.73936662972109      5.26600801345026     10.22177069258970
  C   4.02837023626251      5.80284850330983     11.47899256132270
  C   3.06940993586204      6.69774399186223     12.23007921770018
  C   4.56005639964571      8.65472235012982     12.35280117258167
  C   5.80628947971255      9.05319900423698     13.12751198583296
  C   7.55263127018902      8.09708837649145     14.56285753135272
  C   6.72025302405874      8.03401779201891     15.81454937826893
  C   7.01238658344072      8.71611367695257     16.99691403008969
  C   6.19331386760251      8.51608650244389     18.11621191429902
  C   5.10472853843685      7.63954334594684     18.02108566014499
  C   4.85911843554086      6.99668290492826     16.80764512270969
  C   2.93352902160834      8.19458531308682     14.16369066083580
  C   7.51394586682872      7.53077450237503     12.18890088973245
  C   7.61756604506710      4.17101145799148     15.04764661854619
  C   8.24640909771293      3.07179075185935     15.77167450290919
  H   6.94656989585694      4.40534099892445     12.14505005703043
  H   6.54446163078585      3.35054753431461      9.90410130438939
  H   4.43093698193973      3.93915812106466      8.66001539258883
  H   2.81346787223447      5.53847841717111      9.72035237686647
  H   2.43135785246659      7.26383397722356     11.53534170798792
  H   2.41994739623916      6.07785984168193     12.86316646693626
  H   3.91704005235523      9.52950331386283     12.17784063457335
  H   4.82564963732873      8.23343006704596     11.37619911379595
  H   6.39136746903482      9.80944303042359     12.58592550919733
  H   5.53182392916327      9.46841932441078     14.10392478515773
  H   8.06434056464929      9.06316856720840     14.45033386009994
  H   8.31171562186367      7.30519051199177     14.58048769352040
  H   7.86666750122210      9.38781067559458     17.03924104434294
  H   6.40310174354279      9.03751885568621     19.04743643844387
  H   4.45037005023045      7.45391983667554     18.86874977009678
  H   4.03615405503369      6.30096994555058     16.66528103388115
  H   2.11343240545266      8.75710174876939     13.69407513946962
  H   3.50753876573874      8.86846138727335     14.80606862851733
  H   2.52236717744306      7.38171747834684     14.76902824934863
  H   8.22595771019101      8.34986571993947     12.01633094333862
  H   6.88188976483496      7.40706755777877     11.30687066537553
  H   8.06242939657611      6.60415559865730     12.37940173871767
  H   7.52117255665656      2.25865647594772     15.90460648284843
  H   8.58329024719224      3.41950291197329     16.75636376869874
  H   9.10965518803352      2.69688980484542     15.20726392214624
