46
Coordinates from ORCA-job AGAXIS_2_6_tpss_d4_lanl2dz_631gpol_Co2.opt
  C   6.28770976862971     -0.19483805216810     13.56250724381676
  H   5.94854093025599     -0.15834317336151     14.58912189089926
  C   6.67541310333799     -0.97777825238604     11.51550287044828
  H   6.67594993297408     -1.69124687380214     10.70340675564361
  C   7.15388629457055      0.30578201240132     11.62034505159756
  H   7.65873443432353      0.91095319404231     10.88040213487572
  C   9.17371078644779      0.82065882005098     15.27330086912386
  H   8.89297483895478     -0.04023829371268     14.67594434835092
  C   10.20992583905614      0.86887827410337     16.23625712537852
  H   10.82229542029348      0.06936263392658     16.63693098384486
  C   9.13417186663655      2.84897399979656     16.18610153480584
  H   8.42036678766957      3.10724717206853     16.98302624365961
  C   10.23349595973550      3.24621708818204     12.51539844204635
  H   10.67823659027905      2.98604076375015     13.46585554887942
  C   10.05498445619229      3.84176344465024     10.37878578436230
  H   10.38852941108079      4.13475651718157      9.39320447461140
  C   8.80383096518312      3.65138554587529     10.91310853756671
  H   7.83512537308625      3.76875714829829     10.44833133024029
  C   6.39820591497538      5.07904352166657     15.37202517097597
  H   5.46261692223726      4.58293139472376     15.59133935723617
  C   8.36776948554456      5.58135420943628     14.58614685443966
  H   9.27905686452913      5.44856757346256     14.02151977902143
  C   7.97264518985175      6.64965917189958     15.35596931315574
  H   8.44708885589811      7.59110163641220     15.59466205922702
  C   4.77040937952247      2.84347280546947     11.88579652222860
  H   4.55133593665334      1.79219838832889     12.00254108103945
  C   5.70986648733687      4.81158062706400     11.98777891024443
  H   6.44357920535237      5.55144088417487     12.27462223101822
  C   4.58034627802468      4.95827167674565     11.22209113261785
  H   4.14435723955214      5.81128335259153     10.72133955620990
  N   6.90984860673441      0.78739103591455     12.90070845355077
  N   6.13041855369261     -1.27300861924454     12.75311800500801
  H   5.68981796106855     -2.15168120445712     13.01420200798119
  N   8.59523403198110      2.02078428868267     15.11068025223273
  N   10.36642611899099      2.19235147618724     16.60795590170395
  H   10.79941046023735      2.43720690830927     17.49690449866817
  N   8.92422370571594      3.28226750504070     12.24651316478410
  N   10.94220604493194      3.57993112832117     11.40813251626211
  H   11.95583847322720      3.62633806545035     11.34383451793167
  N   7.37895632268944      4.60699970185799     14.60047777612983
  N   6.72416944668208      6.31045602097239     15.84472621339905
  H   6.14467306770235      6.88761266855196     16.44854771526295
  N   5.82451009853419      3.48730034486436     12.39804887711397
  N   4.00075988490720      3.70078435508784     11.17267560080171
  H   3.13927366193477      3.46268672088675     10.68802150881428
  Co  7.41697304278426      2.72064239270214     13.55898985278901
