47
Coordinates from ORCA-job AGAXIS-oxo_2_4_tpss_d4_lanl2dz_631gpol_Co2.opt
  C   6.35324286993517     -0.11636903743155     13.52059622266228
  H   5.84461459953551     -0.02682347210134     14.47032997804336
  C   7.16522955089287     -1.00544660088885     11.64864421926488
  H   7.36249256985046     -1.76936204926757     10.90944874869887
  C   7.51082812537879      0.32362486601720     11.71797898984010
  H   8.07906370208925      0.91731107949676     11.01660831448775
  C   9.38771800998020      0.82793483204140     14.88496100140624
  H   9.36751854230888      0.26977094700478     13.95973759805848
  C   10.07622176753988      0.57127746779968     16.04607796239962
  H   10.75338461919926     -0.22279939852070     16.32826637777326
  C   8.88396728663101      2.43661755865710     16.28096744884395
  H   8.45187224189396      3.31936462999724     16.72861604901283
  C   9.99322857173536      3.18593215081235     12.67104714681442
  H   10.46150380241335      2.96222014302375     13.61700954481887
  C   9.75709087547682      3.71611210927690     10.52191930449114
  H   10.06334743742505      3.98119943515912      9.51966354664259
  C   8.51988993867935      3.52364246671882     11.08417760078404
  H   7.54383801255954      3.60246783635978     10.63155238795485
  C   6.56709549004151      5.24737113331481     15.42479026949003
  H   5.69975910212093      4.73002802131030     15.81066900494105
  C   8.39774191147097      5.73183230948893     14.33361275405112
  H   9.23901585744657      5.57570569911172     13.67446084618891
  C   8.04352383970739      6.86449878799095     15.02833570549173
  H   8.49563661701145      7.84395331537011     15.09998804666942
  C   4.79469049981612      2.90959664614641     11.93123276121067
  H   4.61148423402106      1.85250867901899     12.05364131821435
  C   5.66482389916760      4.91402900045141     12.06177467733861
  H   6.37714089186098      5.67409787986130     12.34891456462608
  C   4.52277841560078      5.02880636743260     11.30699592972926
  H   4.05481276790802      5.87461884571279     10.82303643318091
  N   6.99865702659752      0.86632450216058     12.88689529784932
  N   6.43592543243702     -1.26056778154506     12.79622078575278
  H   6.02526527007655     -2.15452885009606     13.05390343167691
  N   8.65628705782162      1.99672735514927     15.04260688320451
  N   9.74274410126801      1.59801361061096     16.91215071259734
  H   10.07272724084575      1.69955793482356     17.86867219654324
  N   8.67647723789224      3.19256449978154     12.42582784961625
  N   10.66815452699495      3.50033844627908     11.54067413224754
  H   11.68003677741864      3.56121744584506     11.45699629613650
  N   7.47312562751383      4.73112012703132     14.59008374118626
  N   6.88611119747859      6.53483534280426     15.70983682217647
  H   6.35978189496807      7.15244582074480     16.32292651011772
  N   5.82624052260118      3.58788668378787     12.43598850684399
  N   3.99041606078299      3.75308728554449     11.23864549781897
  H   3.13213702233607      3.49197072676673     10.76004061116350
  O   6.04613794777585      2.46732754056955     14.83256151866450
  Co  7.21901900549262      2.79125766037667     13.75671445327370
