47
Coordinates from ORCA-job AGAXIS-oxo_2_2_tpss_d4_lanl2dz_631gpol_Co2.opt
  C   6.35379617816670      0.07036509547364     13.59305218311227
  H   5.83842041001113      0.21414755881918     14.53097080984550
  C   7.15908757340787     -0.86638671032100     11.73774213859482
  H   7.33811105988331     -1.64424148157389     11.00864606842524
  C   7.54068727642884      0.45271315872772     11.78413573355752
  H   8.12713741863693      1.01789239015084     11.07595815436788
  C   9.43385758412488      0.99053128683498     14.74396489479609
  H   9.55474923428443      0.53829325054822     13.77013197586166
  C   10.03637673802139      0.67747393217058     15.93754348208918
  H   10.77323833506132     -0.06790830953049     16.20188865653125
  C   8.61340224614934      2.36288301901331     16.24818677922416
  H   8.02908856327795      3.12677910585174     16.73743545992141
  C   10.07118927342302      3.27001561532830     12.60351409395470
  H   10.54351051431950      3.11247875691663     13.56197236524999
  C   9.84132901300955      3.69180206479843     10.43159817908973
  H   10.14588423269588      3.92109942392591      9.41998709802179
  C   8.60745155227916      3.47588263553657     10.99598535019134
  H   7.63520311951520      3.49050060136109     10.52586081240484
  C   6.52469627060550      5.06133069242724     15.34258751398963
  H   5.66613002717493      4.50657538587645     15.69070579508868
  C   8.38398991952013      5.58742572079427     14.30035949497020
  H   9.23849873444395      5.45667787389827     13.65507737544450
  C   8.00960117194585      6.69270012150266     15.02571595449835
  H   8.46113261687441      7.66819717046003     15.14069709105085
  C   4.76725131762277      2.92706250993998     12.24240852852764
  H   4.48773916653293      1.93468487168792     12.56078275121700
  C   5.86182714930830      4.81023558877904     11.96412177421513
  H   6.67695397859747      5.51205796082611     12.06310014089942
  C   4.65432749020888      4.95438795395933     11.32667788535602
  H   4.22461107281118      5.77511950291349     10.76989529772270
  N   7.02993063980979      1.02352355747142     12.94169403088276
  N   6.41590233532809     -1.08213683211955     12.88402746419646
  H   5.98253749895664     -1.96082552960228     13.15589776471252
  N   8.55943684776271      2.04890054905765     14.95119947927675
  N   9.50395877401020      1.55242843154436     16.86788180116093
  H   9.73377628206338      1.58007666617996     17.85799672870335
  N   8.75869301148215      3.21300116402065     12.35274685291156
  N   10.74955688183698      3.55880816218845     11.46442373386226
  H   11.75878615501420      3.65667451579633     11.38620429486472
  N   7.45433589212515      4.57876363550937     14.51005186234928
  N   6.83964492755134      6.33714828634374     15.67111367738428
  H   6.29740250858532      6.93264444370133     16.29184269944676
  N   5.92161025331345      3.53938009351293     12.51835100800830
  N   3.98358159915333      3.75882803449730     11.51651632385115
  H   3.05192506691725      3.53842474393522     11.17420815670294
  O   6.01105047400514      2.44899012684579     14.85592339808560
  Co  7.28139161374174      2.80789320402064     13.69501688538026
