48
Coordinates from ORCA-job AGAXIS-OH_2_5_tpss_d4_lanl2dz_631gpol_Co2.opt
  C   6.15746595055946     -0.11719131764924     13.36188058646946
  H   5.53626114174425     -0.05131522795793     14.24406070288373
  C   7.13093127594363     -0.93497340334062     11.53494003844829
  H   7.37012593023274     -1.66172331648829     10.77109198131597
  C   7.53733691425299      0.36257934797020     11.73743357050072
  H   8.20697560721001      0.96831272642084     11.14443700770860
  C   9.15906735940233      0.72789846686822     15.19755833616430
  H   8.83994792122308     -0.03278074448117     14.49996228150560
  C   10.08836668866577      0.64759944050216     16.20726522006700
  H   10.70938817212581     -0.16284739779291     16.56289258539809
  C   9.23099588446642      2.70048674774494     16.13407786951597
  H   9.05632959543221      3.73948090953856     16.37374092458592
  C   10.03995229783466      2.84951105153649     12.63138568415259
  H   10.47202384585598      2.33989732286499     13.47928905902905
  C   9.88157803149180      3.82556350799394     10.63783061756653
  H   10.21709974194434      4.21206021183794      9.68553094051203
  C   8.64695850177299      3.79127690148218     11.23808834324076
  H   7.70183099951243      4.16074522831824     10.86971865288730
  C   6.47324403910484      5.32320513715843     15.43771934728885
  H   5.59750739428110      4.83020491516835     15.83644100628577
  C   8.31299063597462      5.74507540066420     14.33750689064908
  H   9.15158978859543      5.54907009425941     13.68512362692849
  C   7.97037763697210      6.90753738809879     14.98768619358505
  H   8.43307391619172      7.88394713731854     15.02570398549506
  C   4.83132105336714      2.87220367821727     11.77804775401212
  H   4.73540458921018      1.79699926034874     11.79238547948192
  C   5.50717433941921      4.91985241223361     12.13921904849791
  H   6.12129825273382      5.71085975409624     12.54443789685075
  C   4.42949513675682      5.00575143355590     11.29399325908888
  H   3.92726557559500      5.84708613255861     10.83729027945786
  N   6.92703951986697      0.86280648915513     12.87811701849305
  N   6.25986080552160     -1.21745118111051     12.57270595810512
  H   5.77740812411759     -2.10029605274320     12.72127632080703
  N   8.63032216996355      2.01161553591579     15.15900487347199
  N   10.11731699436555      1.90526485395410     16.78506254803314
  H   10.69255439154380      2.18208229096850     17.57684088982520
  N   8.75320595306710      3.18212267464262     12.48386717385580
  N   10.74613002375571      3.22389220470259     11.53617058266548
  H   11.74407540683659      3.08445230151402     11.39904178131372
  N   7.37508058182574      4.76384210318992     14.62647991602336
  N   6.80493897014539      6.61741894022452     15.67577689520615
  H   6.28551493892235      7.26283479042804     16.26562375893068
  N   5.75356821698034      3.58461636054257     12.43637447941191
  N   4.01719365994896      3.69883393973658     11.08314417535772
  H   3.22842158079505      3.40958436785787     10.51007783863245
  O   5.86793712566236      2.36541920573894     15.10961963200984
  Co  7.10040867583706      2.78588104404781     13.82755017768431
  H   6.22459464297099      2.04134693218791     15.96490681059861
