46
Coordinates from ORCA-job AGAXIS_2_4_tpss_d4_lanl2dz_631gpol_Co2.opt
  C   6.67209473686034     -0.23267270928999     13.61246837239851
  H   6.58065109510613     -0.25667154614330     14.68968625549583
  C   6.66984342537309     -0.92243889278471     11.49661407169208
  H   6.56148507390410     -1.61381983164749     10.67263327967580
  C   7.03004058663198      0.40169565440794     11.55333325417025
  H   7.29866279749160      1.07244854383873     10.74932959919345
  C   9.42789525685246      0.91518423163748     15.08580917751149
  H   9.52045365431173      0.33513200406590     14.17783842983560
  C   10.04117412130873      0.73018936007948     16.30066258514764
  H   10.74631710513882     -0.00823536620393     16.65612317064253
  C   8.71348293135369      2.51426706430931     16.39080356811237
  H   8.20915356385310      3.38696011527476     16.77904148202986
  C   10.26864536488116      3.24674196421210     12.39515776347872
  H   10.75034650737877      2.96496410886479     13.32132775254886
  C   10.01002589833089      3.85451724415328     10.27100148173617
  H   10.30594575719296      4.14464636178691      9.27256404874752
  C   8.77999626577837      3.68986401204184     10.85981851308327
  H   7.79518492410464      3.82892420588741     10.43624037752998
  C   6.43966563397181      5.27417944649939     15.16174354309408
  H   5.43402424662405      4.88338219339023     15.23635426034980
  C   8.54697095406920      5.54748848301409     14.68059463701719
  H   9.51362091047935      5.30753495508641     14.26137191110537
  C   8.15757666745582      6.67178612658322     15.36887550665870
  H   8.68726814649013      7.56722964848804     15.66275396865262
  C   4.71053492186859      2.82809568921366     12.08934880966938
  H   4.49422035069729      1.79011635141491     12.29753244861123
  C   5.67295204925083      4.78518359290055     11.97478075326524
  H   6.43652550107524      5.53089384717175     12.14591008072053
  C   4.48368877669580      4.89557621487134     11.29843480186264
  H   4.01487681185385      5.71793644292670     10.77621609891936
  N   7.03045718116308      0.82534586467752     12.87680391652514
  N   6.44536384568511     -1.30181898593995     12.80936268027402
  H   6.16495451564738     -2.22856594695094     13.12038816408766
  N   8.59974180847682      2.03303346399309     15.14924835086348
  N   9.57160050131475      1.75005875563192     17.11004622472071
  H   9.82312470211391      1.89831344772958     18.08416247357006
  N   8.94987517344856      3.31340237231781     12.18568753344002
  N   10.93554565788743      3.56762182088429     11.25849596925602
  H   11.94620573922243      3.58968587754704     11.14926377183310
  N   7.47042229755501      4.68072460814276     14.55458083884416
  N   6.82025039754150      6.47728720365781     15.66527922222641
  H   6.22123732834877      7.12850417525581     16.16614759888350
  N   5.81036028777670      3.49008854994264     12.46413614853293
  N   3.89056855913933      3.64634115772653     11.38648062412163
  H   2.98909145639879      3.38794130220193     10.99316988935687
  Co  7.47577651189554      2.76823681713121     13.53927659050744
