82
Coordinates from ORCA-job DEDKUU-oxo_1_3_tpss_d4_lanl2dz_631gpol_Fe2.opt
  Fe  0.26699567277089      5.16307412367959     -0.22389394826907
  N   -0.48516746822970      5.34289563823656      1.57748235564426
  N   -0.91382232524676      4.96191662315251      3.70303538069683
  C   -0.36413025121910      4.45798906531268      2.56879980540711
  H   0.12831537515177      3.49210130433083      2.49034108907264
  C   -1.13502246125948      6.45267670246106      2.08499895270067
  H   -1.37115395356202      7.29639003893865      1.45235296042205
  C   -1.40027877387884      6.23030218007309      3.41491330005272
  H   -1.89402361077348      6.83372759856118      4.16396505348342
  C   -0.81279842472850      4.33806531575959      5.03320348326628
  H   -0.73616534871849      3.25681609112730      4.87010508252273
  H   -1.74783509374457      4.53817035599921      5.56909612136878
  C   0.40577502319335      4.85942744463608      5.81599100185049
  H   0.27239783080681      5.93205073346099      6.01937382942796
  H   0.41002159533578      4.34839546542728      6.78916557272745
  C   1.73670360000529      4.62157392454262      5.08678784147571
  H   2.57855938655117      4.94286970753819      5.71294041410251
  H   1.77719607512574      5.18820616879935      4.14621340478501
  H   1.87555959840014      3.55836435391629      4.84584457356889
  N   1.23110657653763      6.85599616698768      0.05275318037621
  N   2.57281375193794      8.38435984649348      0.90623313325532
  C   2.22169511985694      7.07282069872943      0.91718560038101
  H   2.68243849042053      6.31503922767023      1.53133114767296
  C   0.92432340661343      8.06838162216191     -0.53298126539797
  H   0.14060527126367      8.13993036009676     -1.27319601264636
  C   1.75108684890659      9.03094665018287     -0.00590078219496
  H   1.84143769213214     10.09072896471442     -0.19992892656931
  C   3.53226437326081      9.02186703591365      1.82390420403044
  H   4.09618816596703      9.76645475225069      1.25032518190461
  H   4.23258374478343      8.24106908235666      2.14425050901977
  C   2.83076960353639      9.66206759486583      3.03497354595475
  H   3.60857675268221     10.14418122929768      3.64400985435744
  H   2.16377641677542     10.46117970085736      2.68055116049699
  C   2.04261060145604      8.65299872907005      3.88280964305916
  H   1.59396479499759      9.15117789139938      4.75127115566983
  H   2.69844945040928      7.85339714350674      4.25688207829645
  H   1.23166789540811      8.18805327829799      3.30604514752125
  S   2.39847151830841      2.90545177685338      0.93062442271646
  O   1.91110753155087      4.34434612714330      0.64399855544069
  O   2.80197746856044      2.21445829599336     -0.30607103634811
  O   1.47811623912729      2.19085981559276      1.83959118610506
  C   3.90960787584714      3.23410206637653      1.85747799519120
  H   4.59855869642879      3.81201282649682      1.23314439663600
  H   4.36103016534967      2.26938190598351      2.11123548368002
  H   3.66614470819321      3.78219116465059      2.77314591383288
  N   1.09583774098857      4.94018906105447     -1.98921299560329
  N   1.18774522814243      4.78020523695199     -4.18766303165282
  C   0.40044570593812      5.06534732736193     -3.12106035575695
  H   -0.63746224827140      5.35869630120125     -3.17749774732100
  C   2.37830889488013      4.55932868457595     -2.33401849668912
  H   3.12901180400740      4.36621313662408     -1.58522394511011
  C   2.44444769697807      4.44866721039295     -3.70179197745629
  H   3.25498295623231      4.17523458803840     -4.36286296237678
  C   0.73836920389829      4.68192164905747     -5.58645447113403
  H   -0.13125830449442      5.34200784796903     -5.69087207722207
  H   1.54130937980723      5.07751611568921     -6.21898226731204
  C   0.38017608803743      3.23663704058518     -5.97564881363717
  H   1.27543703453116      2.60662145099487     -5.87367452671314
  H   0.11535341219629      3.24389729284270     -7.04260247685889
  C   -0.77405068012128      2.65291131311812     -5.14771312029384
  H   -1.01428528889276      1.63833899866348     -5.48921731294644
  H   -0.51725272998558      2.59520906715385     -4.08144516653947
  H   -1.68252184045485      3.26475910090502     -5.24888204911224
  N   -0.63848556122990      3.43473674695021     -0.46508323514843
  N   -2.34840905370115      2.04540214060983     -0.58778485800396
  C   -1.93687617109464      3.27723484666392     -0.20083205142171
  H   -2.58194388793277      4.03183898796184      0.22448135745085
  C   -0.19612228327009      2.26584198973134     -1.06038849114120
  H   0.84436448211870      2.12174946958381     -1.31849216125913
  C   -1.25374727852567      1.39388778691797     -1.13870722312714
  H   -1.32032772007809      0.37845722192039     -1.50317194674683
  C   -3.73788197889738      1.55796374626442     -0.58479840047102
  H   -3.73920700632770      0.54795555491658     -0.15826030910721
  H   -4.30172711373332      2.21338859679510      0.08955305937645
  C   -4.34443606283155      1.57154937553155     -1.99867211313402
  H   -5.37065004341063      1.18580743130568     -1.91846860449889
  H   -3.78979130298604      0.86496072403480     -2.63314923868511
  C   -4.34662000164372      2.96676606143487     -2.63914105021252
  H   -4.81374103370217      2.93384159818003     -3.63105510074638
  H   -4.90931969694139      3.68499502210794     -2.02598094065172
  H   -3.32431440900773      3.35059574480055     -2.75929234012427
  O   -1.00775753651295      5.95995874121238     -0.88641430536030
