87
Coordinates from ORCA-job DEDKUU-CH3OH_1_5_tpss_d4_lanl2dz_631gpol_Fe2.opt
  Fe  0.02085839684695      5.27206867852929     -0.36172086774303
  N   -0.77936500969602      5.46132466308122      1.60447626444129
  N   -0.70186234989038      4.84792972874771      3.73157446485392
  C   -0.53643950925846      4.45086836669405      2.44460455442000
  H   -0.18354873705696      3.46404253984018      2.15491929859478
  C   -1.11013784774685      6.55283533764069      2.38875702328922
  H   -1.35540860803910      7.50987788953005      1.94874106058559
  C   -1.06437653231795      6.18924156556673      3.71357464663622
  H   -1.26815725900108      6.73452384880813      4.62505292300913
  C   -0.35186037189738      4.04578737565197      4.91579353536927
  H   -0.45780207540910      2.99381094160731      4.62680070033915
  H   -1.08862044341701      4.26293682052395      5.69811997801074
  C   1.08090970358242      4.33595673163444      5.39842958998050
  H   1.14541975756327      5.38623041014176      5.71939399319614
  H   1.25308462630469      3.71958696143324      6.29249514109654
  C   2.14805472138467      4.03610426365006      4.33495892763688
  H   3.15108027668136      4.21730831347315      4.74299920389792
  H   2.01923218077704      4.67112069566761      3.44850002788217
  H   2.09506377673797      2.99118782758072      4.00218500993515
  N   1.06527605961183      7.15596010235233      0.00599927033621
  N   2.55772134983910      8.38336800395311      1.10489725174497
  C   2.17411096511843      7.12930460635337      0.74834604379292
  H   2.69643955550834      6.22526914084512      1.02975097119907
  C   0.72165727524154      8.49295755227384     -0.11066665850780
  H   -0.14332826218146      8.80952197653206     -0.67599632638517
  C   1.63382262727508      9.26688420444987      0.56643884052375
  H   1.72228651278245     10.33595821949912      0.70441841650922
  C   3.68087154162438      8.73341783853080      1.99091869798166
  H   4.22472930171117      9.56579857726162      1.52860287045899
  H   4.34804452116678      7.86354910731895      2.01364982459120
  C   3.20568219972988      9.09783977793037      3.40805919106238
  H   4.09173329944076      9.40819356995514      3.97998175381057
  H   2.54423026861378      9.97450458395411      3.34888358928725
  C   2.49129426631553      7.94107178842268      4.12080997842437
  H   2.18698029894268      8.24328753467587      5.13095168519579
  H   3.15342084071035      7.06889005083951      4.21589402507957
  H   1.59067251962356      7.62694551351258      3.57666712606353
  S   1.97369939452635      2.82391643935345      0.32024124522301
  O   1.76562700203814      4.34196550119874      0.36956544619623
  O   1.83805859176111      2.29341540440847     -1.05594743583654
  O   1.18793063875022      2.13030047627319      1.36648585665376
  C   3.71117162801989      2.65449857988673      0.76496607853669
  H   4.32189467543113      3.18409911831898      0.02676678809121
  H   3.96279132245005      1.58897754879745      0.76267158344812
  H   3.86984206026671      3.07239366899732      1.76421082073896
  N   0.68240875883967      5.17727115011111     -2.38948298610703
  N   1.43191358859164      4.31128205433967     -4.28989648771282
  C   0.68770003162293      4.09912833434779     -3.17639372035954
  H   0.20499660632951      3.15894841732067     -2.95861803230170
  C   1.47352550377463      6.12128206725125     -3.02732894433525
  H   1.64906391714724      7.09137879256819     -2.58364308193174
  C   1.94401120544347      5.59870461178234     -4.20658947451732
  H   2.57469362433789      6.00949762430484     -4.98275001130638
  C   1.72441615597208      3.32649384454634     -5.34789228237126
  H   1.03253820620860      2.48971403717118     -5.19604487790415
  H   1.48961565977456      3.79354654536627     -6.31237285515249
  C   3.18351439617539      2.84255425968074     -5.29959945357256
  H   3.85050804868071      3.70610594898188     -5.44133707003716
  H   3.33429111742372      2.18487151840908     -6.16793438308205
  C   3.53064090055203      2.10465630010187     -3.99951526356603
  H   4.57713034978583      1.77509332243261     -4.01609375410992
  H   3.38246868240401      2.73949370219810     -3.11803649232053
  H   2.89870796246274      1.21572549846198     -3.86885232810245
  N   -1.37152433818590      3.50849359071097     -0.55156871252184
  N   -3.29298014847924      2.45463854365247     -0.14975490883464
  C   -2.63083105502927      3.64024186528538     -0.11687793976001
  H   -3.07703101357521      4.56032840524735      0.23521375425747
  C   -1.22609836762061      2.16583010080409     -0.87830709992360
  H   -0.26513618124337      1.77421589551090     -1.18713934192943
  C   -2.40776420744480      1.50656476259145     -0.64306283281227
  H   -2.69180987562070      0.46868689835519     -0.75109246623435
  C   -4.71759267536346      2.24869412450987      0.15582147424984
  H   -4.80403155472739      1.32590192827282      0.74140781798049
  H   -5.02963317209780      3.08508268446982      0.79315246508013
  C   -5.57859431252484      2.18279177530983     -1.11786877940786
  H   -6.61645888323666      2.00355119367530     -0.80299327604896
  H   -5.27296395608054      1.31104125215381     -1.71428792136571
  C   -5.49560315270919      3.45811592422175     -1.96819686583078
  H   -6.14831980330161      3.38017662197688     -2.84611841755954
  H   -5.80843970846730      4.34109257472770     -1.39247814267461
  H   -4.47062087156492      3.62864367627232     -2.32593848508754
  O   -1.92243076087122      6.20611129598512     -1.33340139314992
  C   -1.97033778170941      7.32094932426955     -2.25113118211582
  H   -2.84249895768874      7.23568675829024     -2.91199764612161
  H   -2.08066939824933      8.21875980906445     -1.63750793485179
  H   -1.05108306767455      7.38081984154077     -2.84863892328849
  H   -1.98584662252661      5.38036127802691     -1.85902415291035
