87
Coordinates from ORCA-job DEDKUU-CH3OH_1_1_tpss_d4_lanl2dz_631gpol_Fe2.opt
  Fe  0.24880863067380      5.22021736881237     -0.29643948278426
  N   -0.38984577097411      5.28693514791630      1.54585916592162
  N   -0.65558150127687      4.69361867283478      3.66327320577883
  C   -0.15457296346744      4.32999915524083      2.44984473889027
  H   0.35488326249649      3.39212627022475      2.24178960135859
  C   -1.06601025094805      6.30083666601953      2.20465872425956
  H   -1.38308433023349      7.19224431730422      1.68215068634762
  C   -1.23175255570742      5.94743014841161      3.52427692584920
  H   -1.69865913438882      6.45443453497789      4.35768469051089
  C   -0.45847829897079      3.95353541731827      4.91934120166708
  H   -0.34393188628001      2.89660832515361      4.65102748582194
  H   -1.37316442734107      4.05765978965915      5.51484480350582
  C   0.77089936746645      4.45458063923994      5.69881416504106
  H   0.61923288207677      5.51058882862619      5.96734650987506
  H   0.81276916252903      3.88976470239520      6.64111017197032
  C   2.08789828789303      4.28699855523641      4.92715578963058
  H   2.93612187558809      4.62573288477782      5.53520065588264
  H   2.08246945764242      4.87122617173624      3.99667607775160
  H   2.26032800790728      3.23518937508142      4.65943331016044
  N   1.24200255845527      6.89056785049768      0.02596735018182
  N   2.62851345490730      8.23195690750966      1.13045638703481
  C   1.94909449356163      7.05350988136796      1.14701057058198
  H   2.01660476216280      6.32841486616902      1.94292740756162
  C   1.48571454661023      8.01673553431408     -0.74584817940074
  H   1.08071148564023      8.12053059701924     -1.74170750149184
  C   2.33416313491380      8.86070087646947     -0.06879498376596
  H   2.76041259151687      9.82028384775857     -0.32726028350855
  C   3.45090623315463      8.76967317977990      2.22633745395184
  H   4.24030220815350      9.37736688312976      1.76961508676910
  H   3.92944356286479      7.91445695055861      2.71985284382216
  C   2.63226875253260      9.59403030372856      3.23567554258724
  H   3.34491590168436     10.03571495118451      3.94707070387804
  H   2.15106181254073     10.42977732132052      2.70733725403128
  C   1.58230011507324      8.76617765178311      3.99020735463464
  H   1.04880634280220      9.39226297577443      4.71632975650593
  H   2.05419765913241      7.93932681747432      4.54157465794473
  H   0.83958938848666      8.33497352729164      3.30629502935055
  S   2.26647539246189      2.89704829341794      0.24011347848713
  O   1.92075804758431      4.39146998114257      0.39227681493471
  O   2.40262068706185      2.48292842817434     -1.17055943862792
  O   1.40963620688348      2.05155551310815      1.10334517118394
  C   3.92353439368932      2.87584818160008      0.95139302023436
  H   4.57696883930091      3.52280606367675      0.35788258846219
  H   4.28976995706094      1.84452392999299      0.92162516079617
  H   3.87579122801345      3.22686042530358      1.98711812476359
  N   0.97718222470155      5.12663713819790     -2.10904280442493
  N   1.32638840639064      4.68382260312007     -4.26019142405411
  C   0.41822303469363      4.70329222609294     -3.24672874692531
  H   -0.60509266308770      4.37673860526134     -3.36859705052808
  C   2.30532246841489      5.38344943424319     -2.40898337137285
  H   2.98754458981816      5.71059654357679     -1.63929088828248
  C   2.53460874870368      5.11071347529700     -3.73430632419429
  H   3.42834652396820      5.16587814508053     -4.33991092003279
  C   1.11050340149135      4.12094662902186     -5.60222173802076
  H   0.02682559599891      3.99581211058893     -5.71841988900571
  H   1.44714048649551      4.85756456331669     -6.34242365399694
  C   1.83566161018782      2.77520874611526     -5.78100425812003
  H   2.92166460475113      2.94740193562135     -5.77172608207803
  H   1.58409082292517      2.40349220471845     -6.78488604629499
  C   1.46230895949787      1.74079283993946     -4.70941531669041
  H   1.92077888903614      0.77138459027289     -4.94021393112056
  H   1.81430999249422      2.04798356949947     -3.71647001139797
  H   0.37254213234744      1.59296988276102     -4.66577665543062
  N   -0.82475058953285      3.57429879888563     -0.56230693255294
  N   -2.56540904024556      2.19935187892317     -0.34428699758191
  C   -2.02116762977579      3.39025669258381      0.02330630759194
  H   -2.48593511794358      4.06431789404313      0.72959888164863
  C   -0.60704746203297      2.44518368272074     -1.34257196486477
  H   0.33481126781674      2.30247949024743     -1.85190644187689
  C   -1.67650245489520      1.59379517299027     -1.21668522247106
  H   -1.86800299081783      0.61420114693222     -1.63248458724935
  C   -3.90840437075063      1.71861582705822      0.01186384752519
  H   -3.82546956480231      0.65882977572030      0.27989286966139
  H   -4.21660084800480      2.27132563830392      0.90770931807156
  C   -4.91636169708247      1.92594482240820     -1.13258824970650
  H   -5.88502918221503      1.53113943549965     -0.79497988031757
  H   -4.60931003977877      1.31837830689140     -1.99593430578994
  C   -5.06071059689915      3.39633784459815     -1.54914493301124
  H   -5.80399208720723      3.50226133142746     -2.34857599133178
  H   -5.38372118298623      4.02028295413682     -0.70341625654255
  H   -4.10641853184986      3.79461491336845     -1.92421435468007
  O   -1.49194034049424      6.16201645882678     -0.86255888884403
  C   -1.56719649568365      7.27004945943431     -1.79561622144187
  H   -2.61343600021547      7.42577703353291     -2.08369890098678
  H   -1.19954690023819      8.14439620055119     -1.25665529089330
  H   -0.94590951626767      7.07982390295037     -2.67954440012849
  H   -1.98856202786072      5.39996738472548     -1.23383209059856
