81
Coordinates from ORCA-job DEDKUU_1_5_tpss_d4_lanl2dz_631gpol_Fe2.opt
  Fe  0.69798538941803      4.98491108771587     -0.09342428938054
  N   -0.58770139174074      5.38914933101468      1.55209723367219
  N   -0.92802787762784      5.06612225866663      3.71873456956915
  C   -0.50754653054366      4.50799282887737      2.55701465350255
  H   -0.08529546528320      3.50953426566710      2.47938955732355
  C   -1.07334618253912      6.56453482737169      2.10277321364817
  H   -1.22758604275927      7.44852455149742      1.49862980996868
  C   -1.29080622075505      6.37936725425940      3.44671477111865
  H   -1.67549726907479      7.03314674790084      4.21748459571394
  C   -0.80236831795358      4.44924917965187      5.05066142559366
  H   -0.78609250189496      3.36457130284561      4.89459166360721
  H   -1.70134171101621      4.70077067186436      5.62560479043630
  C   0.47652943100044      4.91544595132702      5.76973246032196
  H   0.40951465759100      5.99714262714852      5.95877708058809
  H   0.49462220049683      4.42193872956787      6.75190516402466
  C   1.75789247451622      4.59040639604010      4.98710461427736
  H   2.64135494061544      4.88946077708994      5.56588785848929
  H   1.78519020302280      5.11944142728746      4.02510479869636
  H   1.83183588727206      3.51534926754795      4.77591708882945
  N   1.46178905905928      6.99731855988072      0.01811463345968
  N   2.53978294075010      8.65481895685423      1.02998769811711
  C   2.38663496786140      7.30766490736805      0.92719931386062
  H   2.93985399465017      6.58489153885597      1.51066532504433
  C   0.99895170525052      8.20198244131298     -0.48244271400327
  H   0.24931243058641      8.23964686047970     -1.26242376043032
  C   1.65400345810212      9.24024445544873      0.13736085549894
  H   1.59320813023973     10.31369291851025      0.01994691461713
  C   3.39856786837621      9.35521453369906      1.99945801184075
  H   3.85288932369741     10.21014299268912      1.48534859942338
  H   4.20139159708504      8.65956434916203      2.27193386136482
  C   2.61936529103694      9.80396204840966      3.24844210522535
  H   3.32254303925258     10.35342463447821      3.89041660144086
  H   1.83951205818211     10.51883413438831      2.94774097457540
  C   1.99613972065101      8.63430193900461      4.02419530929140
  H   1.49500759068950      8.99909885354501      4.92983388201076
  H   2.76480291826740      7.91139616067077      4.33310928721063
  H   1.25158787891259      8.10131030310965      3.41830067208338
  S   2.60248793312900      2.93342865369151      1.23735987620163
  O   2.27402065963099      4.43613504540221      1.06562783411943
  O   2.90352462770537      2.31245501944870     -0.06889044063370
  O   1.60253888507184      2.26219470408021      2.09292396237145
  C   4.14621626468755      2.99510838922249      2.16141450928692
  H   4.89788050337818      3.52358015580343      1.56670785443708
  H   4.47202483016096      1.96624605951888      2.34571247339478
  H   3.97654064777796      3.50967214479061      3.11210413722113
  N   1.14592260998753      4.84262061983070     -2.14881950538799
  N   1.03522034234375      4.62042805020847     -4.35164256634528
  C   0.41182093692606      5.08016031745514     -3.23647591769595
  H   -0.55670409799751      5.56166449504042     -3.25904632803082
  C   2.29114544271458      4.19152822110879     -2.58194431255790
  H   3.03375568127191      3.84251056868005     -1.87630904057780
  C   2.23098405298875      4.04441656418694     -3.94604149983368
  H   2.91357045008051      3.59842228091339     -4.65602133257262
  C   0.47435801986873      4.58993568275561     -5.71285874338944
  H   -0.36941351575308      5.29053055401557     -5.72419811641636
  H   1.23848237327203      4.96909318694535     -6.40172561120858
  C   0.01685380399018      3.17452893728700     -6.10852461594801
  H   0.89384896647827      2.51299075406630     -6.15511592962541
  H   -0.38659130507499      3.23658882081431     -7.12919929519253
  C   -1.03303471388212      2.59049413874115     -5.15251455404465
  H   -1.36697736507218      1.60711635505950     -5.50636437037115
  H   -0.62709571556973      2.46285514098752     -4.13991874298926
  H   -1.91646067191344      3.24216595620889     -5.08949654223500
  N   -0.45081500888126      3.17140357092214     -0.39265942155015
  N   -2.25529444286994      1.92298402877985     -0.74417479672498
  C   -1.77722893773052      3.09963830100220     -0.26083367654791
  H   -2.40526771152503      3.85819160714001      0.18702745728570
  C   -0.05853615208572      1.98725788303130     -0.99746194792666
  H   0.98970316320829      1.77821987079284     -1.16374826783317
  C   -1.16580154222310      1.20703681592245     -1.22448974069479
  H   -1.28205277491932      0.21666198937253     -1.64316891109816
  C   -3.66974281076173      1.53402997918807     -0.85237617792432
  H   -3.75370697199488      0.48632371999809     -0.54060855137108
  H   -4.22595866246976      2.14638434933145     -0.13215100633965
  C   -4.21464494628233      1.73689018708010     -2.27744086563060
  H   -5.25532944693878      1.38316357407745     -2.28642310211619
  H   -3.65362731398540      1.09307529445559     -2.97022612160154
  C   -4.14614870323766      3.19837263022401     -2.74168081864252
  H   -4.55127509156864      3.30198679256757     -3.75592900775108
  H   -4.72982820992309      3.85272401359326     -2.07829546869316
  H   -3.10852372740719      3.55961450504828     -2.75239138744767
