83
Coordinates from ORCA-job DEDKUU-OH_1_4_tpss_d4_lanl2dz_631gpol_Fe2.opt
  Fe  -0.04422220730839      5.33109519435659     -0.41569966944722
  N   -0.66240635323491      5.48719027237667      1.45778925403219
  N   -0.86937160004638      4.97834281648051      3.59028462944522
  C   -0.53229055398282      4.51467489715529      2.36271930864814
  H   -0.16243430776858      3.51588381366161      2.15792977655065
  C   -1.10368702855690      6.61638918992462      2.12053536185298
  H   -1.30328105349168      7.53434396422645      1.58698852541684
  C   -1.23151422550701      6.31434998053793      3.45446727651144
  H   -1.55466079703732      6.90274845783069      4.30202066365071
  C   -0.66259567413493      4.24520489540267      4.85035553738814
  H   -0.76356728522542      3.17879511859685      4.61761311771369
  H   -1.47154623964281      4.52389898102963      5.53538383626660
  C   0.71934285776913      4.54198362621815      5.46118396598127
  H   0.76681168093831      5.60359017308104      5.74487161812250
  H   0.79262719349775      3.96000362668337      6.39098783406501
  C   1.88614948239087      4.19229504223689      4.52441004307400
  H   2.84308121628790      4.33911616073629      5.04148502749947
  H   1.88367653397454      4.82923813413001      3.62942662658570
  H   1.83566399455579      3.14714446904426      4.18975779003065
  N   1.20380834261557      7.17508697721098     -0.03239488491796
  N   2.57331727854310      8.51315192148063      1.09520613163583
  C   2.28934860176944      7.23037225021760      0.73333863428448
  H   2.87455640114138      6.37719653458100      1.04593862896809
  C   0.75984221290475      8.47880614358954     -0.16247276047177
  H   -0.12996936247178      8.70369203454930     -0.73527351267040
  C   1.59744070816362      9.32184188435079      0.53125653320577
  H   1.60301360008794     10.39500279764702      0.66675236596939
  C   3.63618326485714      8.94432463124112      2.01729854682577
  H   4.13958229029086      9.81028966847668      1.57094844442883
  H   4.36118181283949      8.12299649797610      2.07037423110255
  C   3.08775015824274      9.28087433211496      3.41507550704165
  H   3.93472333288496      9.62688899986499      4.02454694241578
  H   2.39101575655550     10.12757710966210      3.33170368279639
  C   2.39357115527656      8.09191012330053      4.09446306633089
  H   2.05285780879211      8.37091713387215      5.09966463395150
  H   3.07986518305213      7.23913844568917      4.19745516257752
  H   1.51801536677041      7.75857369652738      3.52146069859071
  S   1.89643704683051      2.90401097557220      0.20985194739948
  O   1.55339481022973      4.42252788794898      0.19711581796562
  O   1.72740098084994      2.29795918941571     -1.12208449303628
  O   1.25150622869612      2.22781746696038      1.35006468465891
  C   3.66091698682997      2.97968111420782      0.54988621984663
  H   4.15771292107352      3.53164824964883     -0.25386992315702
  H   4.03634510055412      1.95181631411958      0.58904574373300
  H   3.81954232810268      3.47120281799148      1.51488837655368
  N   0.53706548346038      5.18571651037260     -2.29531164318152
  N   1.06839525938621      4.29222414990528     -4.24080967961295
  C   0.43414555782958      4.09539560875997     -3.06337067643773
  H   -0.05911631966665      3.17830618908634     -2.78323399471272
  C   1.27654834573613      6.11690165955357     -3.00844577421065
  H   1.50637517825036      7.08551497202519     -2.58958585649467
  C   1.61308988506768      5.57105911136610     -4.22036130764769
  H   2.17175256528008      5.96340850059229     -5.05842184750613
  C   1.23664056380020      3.29571212833598     -5.31656737433553
  H   0.58144342754392      2.45321232219503     -5.06721084260742
  H   0.87458897223043      3.74719959013006     -6.24844626294382
  C   2.69784229471625      2.83547617675810     -5.44814307311713
  H   3.32199166186844      3.69957557697734     -5.72095742362546
  H   2.74008777181164      2.14017353507630     -6.29878062168268
  C   3.23801968168437      2.16474643175317     -4.17810876985063
  H   4.28150884828998      1.85903767061057     -4.32413950575467
  H   3.19399155857008      2.83904009251081     -3.31441543951180
  H   2.65542787953795      1.26968644341500     -3.92204556651703
  N   -1.40320436064350      3.44560738291310     -0.56315522874481
  N   -3.45675565550620      2.62064091554878     -0.31741023431367
  C   -2.68397525724728      3.74005448669103     -0.33152444997936
  H   -3.06878262456653      4.73904777469219     -0.17661854857726
  C   -1.35554701517715      2.06644360995472     -0.71240405912538
  H   -0.41763062472665      1.55652056802469     -0.88502545393758
  C   -2.61903171227982      1.54373150681979     -0.56868579740316
  H   -2.99317477145215      0.52948894513871     -0.60472886527840
  C   -4.92146908313014      2.57640517971665     -0.18840971059420
  H   -5.17282778321263      1.79502538882551      0.53909497070519
  H   -5.23109261061547      3.54181427780701      0.23000035868954
  C   -5.61315258994189      2.32073351422650     -1.53877873079598
  H   -6.69487926209463      2.26899574372995     -1.34947378012190
  H   -5.30984732868445      1.33314605524335     -1.91563508368754
  C   -5.30740296759819      3.40179236814755     -2.58484053348990
  H   -5.84130830900628      3.19645682194460     -3.52073280521488
  H   -5.61801752792698      4.39504648513464     -2.23030464828983
  H   -4.23292672265622      3.44154788953998     -2.81076116963621
  O   -1.44066832296752      6.36209865502687     -0.89416651403984
  H   -1.50352003492310      6.32875174952296     -1.87268500583167
