148
QM: 17 at, MM: 131 at, Links: 6
Ga   -0.738700   11.540900    6.798800
C    -0.643600    8.765500    6.518500
P     1.275300    9.397900    8.642900
O    -1.564500    8.094000    6.631500
Cl   -0.311100   13.651300    7.108900
Fe    0.824900    9.814100    6.366100
C     1.956200   11.227500    6.349600
P     0.545700   10.033600    4.029700
O     2.667700   12.120300    6.354700
Cl   -2.891500   11.237600    6.904200
C     2.042800    8.511900    6.037400
O     2.827900    7.706700    5.874700
Ga    2.686700    4.378500    2.379400
Cl    4.683000    5.132500    1.906800
Cl    1.185200    5.320700    1.094600
Cl    2.602400    2.228800    2.053600
Cl    2.264200    4.875800    4.465700
C     4.079700    9.881200    8.395400
H     4.354300    8.999800    8.752100
H     3.883600    9.774400    7.431500
C     5.523900   11.126200   10.056500
H     5.882600   10.297000   10.461500
H     6.210700   11.833400   10.144100
C     5.223400   10.885300    8.577900
H     6.036500   10.542100    8.129900
H     4.977600   11.742700    8.148900
C     2.807000   10.362600    9.131400
H     2.648500   11.292300    8.799700
C     4.259700   11.549100   10.796600
H     3.956400   12.425000   10.448800
H     4.466200   11.657400   11.758300
C     3.127100   10.517800   10.633400
H     2.320700   10.822100   11.120200
H     3.407500    9.646700   11.010700
C     1.703200    7.248200   10.489300
H     2.214300    7.934200   10.986900
H     0.775900    7.244000   10.837700
C     1.688000    7.604100    8.984700
H     2.631700    7.486500    8.675900
C     1.658400    4.769400    9.896300
H     2.183500    3.933600    9.975800
H     0.755900    4.599500   10.263100
C     2.340000    5.874100   10.713900
H     2.284700    5.645300   11.675800
H     3.297500    5.916700   10.466300
C     1.540000    5.152500    8.419100
H     1.007500    4.465200    7.945700
H     2.443400    5.172700    8.012400
C     0.875100    6.521700    8.239100
H    -0.048200    6.493000    8.596500
H     0.827100    6.745300    7.275900
C     0.007500    9.862300    9.916500
H     0.398500    9.606000   10.801200
C    -1.332200    9.109200    9.810700
H    -1.791600    9.361500    8.971100
H    -1.165100    8.134200    9.788500
C    -2.225800    9.454500   11.012600
H    -3.096200    8.993800   10.915500
H    -1.798000    9.125400   11.842400
C    -2.459400   10.959500   11.127400
H    -2.988600   11.148100   11.942400
H    -2.980900   11.270300   10.345600
C    -1.138500   11.724700   11.192000
H    -0.664900   11.496500   12.031300
H    -1.320200   12.697700   11.196400
C    -0.248400   11.374500    9.989900
H    -0.688800   11.675600    9.155200
H     0.615300   11.850600   10.069500
C     0.132900   11.666000    3.259600
H     0.054700   11.484200    2.279300
C    -1.233800   12.238400    3.679500
H    -1.925300   11.534500    3.607800
H    -1.193900   12.537000    4.622100
C    -1.608300   13.424300    2.778900
H    -1.717600   13.109300    1.846000
H    -2.472900   13.804500    3.076100
C    -0.529000   14.510200    2.828900
H    -0.761300   15.233700    2.193600
H    -0.499200   14.901400    3.738000
C     0.842600   13.945700    2.474200
H     1.524900   14.656600    2.566600
H     0.840400   13.644300    1.531700
C     1.210300   12.762700    3.388100
H     1.267200   13.069300    4.328400
H     2.093400   12.397800    3.126900
C     2.059200    9.425000    3.120400
H     2.086300    8.437900    3.280800
C     3.429700    9.957800    3.613000
H     3.525600   10.912900    3.371300
H     3.485500    9.880300    4.598200
C     4.553000    9.142000    2.963100
H     5.428500    9.474100    3.284000
H     4.468800    8.192600    3.231600
C     4.496000    9.246700    1.444100
H     5.197300    8.671800    1.047600
H     4.677000   10.181400    1.171400
C     3.126500    8.817500    0.913300
H     3.094100    8.971100   -0.063500
H     3.003700    7.849000    1.074600
C     1.986700    9.587100    1.582500
H     1.118000    9.244900    1.253900
H     2.049600   10.546300    1.346000
C    -0.870300    8.930200    3.497800
H    -1.588300    9.071100    4.179200
C    -0.488400    7.436700    3.603400
H     0.153700    7.209700    2.885600
H    -0.046700    7.269600    4.474400
C    -1.725700    6.543000    3.481000
H    -2.315100    6.691600    4.261700
H    -1.445100    5.593200    3.487200
C    -2.507200    6.830600    2.195600
H    -1.974800    6.536900    1.414200
H    -3.350800    6.311900    2.201500
C    -2.829500    8.316900    2.056900
H    -3.447100    8.588500    2.780800
H    -3.283800    8.475200    1.192000
C    -1.549000    9.173600    2.127900
H    -1.777200   10.131500    2.028500
H    -0.932700    8.921900    1.395200
C     6.271500   12.477100    2.734800
C     5.150400   13.365800    2.558600
H     4.822700   13.565800    1.688800
C     4.579000   13.905000    3.642700
H     3.848100   14.498600    3.512600
C     4.992400   13.648900    4.966500
H     4.552600   14.062600    5.699800
C     6.024700   12.803100    5.169600
H     6.329200   12.603000    6.047400
C     6.663000   12.200500    3.988700
H     7.380400   11.591800    4.118900
C     6.935500   11.934600    1.584100
H     7.680900   11.356000    1.695200
H     6.629400   12.154000    0.711100
C     2.141500   13.990600   -1.183600
C     1.300800   15.074300   -0.974700
H     1.678900   15.941200   -0.890400
C    -0.066300   14.930200   -0.886200
H    -0.618800   15.692100   -0.757100
C    -0.634300   13.657600   -0.988100
H    -1.577000   13.549500   -0.936500
C     0.179000   12.563700   -1.164200
H    -0.203900   11.696500   -1.217400
C     1.556300   12.715200   -1.265800
H     2.106300   11.951200   -1.392000
C     3.635600   14.150100   -1.331700
H     3.971100   14.752300   -0.636500
H     3.838700   14.525300   -2.214200
H     4.068200   13.275100   -1.242800

QM/MM links (counting starts at zero)
  2   26
  2   37
  2   51
  7   68
  7   85
  7  102
