178
QM: 41 at, MM: 137 at, Links: 14
Fe    1.295300    0.950700    5.917900
N    -0.597200    0.371100    6.016700
N     1.277400    0.783300    3.960100
N     3.229900    1.325400    5.835300
N     1.287100    1.289400    7.849400
N     1.793500   -0.944600    6.175600
N     2.525700   -2.962900    5.777100
N     0.832600    2.860100    5.687900
N     1.040500    5.023300    5.426800
C    -1.216700   -0.028500    7.187600
C    -2.185500   -1.071700    6.879200
C    -2.196000   -1.219100    5.537000
C    -1.250800   -0.274700    4.984600
C    -1.021600    0.065000    3.652800
C     0.103300    0.786100    3.236900
C     0.299700    1.509700    1.998300
C     1.619800    1.858500    1.940600
C     2.247200    1.327200    3.133200
C     3.607400    1.226800    3.448100
C     4.033200    1.007800    4.758900
C     5.339600    0.586600    5.240400
C     5.349200    0.771800    6.589300
C     4.036800    1.313000    6.944800
C     3.612700    1.867800    8.155900
C     2.271900    2.041700    8.468100
C     1.677600    2.818300    9.545400
C     0.372600    2.413900    9.655600
C     0.148200    1.429300    8.608500
C    -0.979800    0.617500    8.398600
C     2.198300   -1.787300    5.247000
H     2.251200   -1.582400    4.320700
C     2.319200   -2.890800    7.110100
H     2.466500   -3.575900    7.751800
C     1.866000   -1.652700    7.342400
H     1.627600   -1.315000    8.197900
C     1.684100    3.854200    5.476600
H     2.622600    3.748300    5.374300
C    -0.292900    4.769400    5.613100
H    -0.996300    5.408100    5.632700
C    -0.411600    3.433400    5.765300
H    -1.227000    2.966000    5.904300
C    -2.856400   -2.002400    7.863300
H    -3.582700   -2.490800    7.401400
H    -3.262300   -1.467500    8.588900
C    -1.882400   -3.010200    8.469500
H    -2.364500   -3.600300    9.084800
H    -1.180000   -2.532800    8.957600
H    -1.477300   -3.545000    7.754400
C    -2.870100   -2.351500    4.770700
H    -3.581300   -2.753800    5.331000
H    -3.292700   -1.991300    3.950700
C    -1.865100   -3.419000    4.391500
H    -2.320600   -4.139500    3.907400
H    -1.451200   -3.779300    5.202400
H    -1.174100   -3.025600    3.818100
C    -1.992800   -0.377700    2.596600
C    -3.308400    0.092800    2.580900
H    -3.615400    0.691800    3.251300
C    -4.160700   -0.333700    1.570600
H    -5.055800   -0.015500    1.550900
C    -3.737000   -1.200100    0.607500
H    -4.340100   -1.487400   -0.068200
C    -2.446700   -1.655400    0.610100
H    -2.156000   -2.260900   -0.061700
C    -1.563700   -1.233200    1.588900
H    -0.661800   -1.531600    1.571900
C    -0.787100    2.016900    1.100800
H    -1.362000    1.259800    0.822700
H    -0.383200    2.409000    0.286000
C    -1.641900    3.074200    1.798900
H    -2.330600    3.396900    1.180900
H    -1.074800    3.823500    2.077000
H    -2.070800    2.678600    2.587400
C     2.224700    2.824500    0.949900
H     1.671400    2.844400    0.128600
H     3.131900    2.517300    0.702000
C     2.307100    4.234600    1.541700
H     2.720900    4.837900    0.890900
H     2.846200    4.214700    2.359100
H     1.404900    4.552800    1.754200
C     4.600300    1.394600    2.347300
C     4.573800    0.526000    1.241200
H     3.979200   -0.214400    1.230700
C     5.422800    0.753600    0.160100
H     5.408900    0.170200   -0.587800
C     6.278900    1.830000    0.181100
H     6.843300    1.993500   -0.565500
C     6.328900    2.658800    1.258300
H     6.930800    3.392500    1.262200
C     5.500600    2.440000    2.355200
H     5.556500    3.012400    3.112200
C     6.395900   -0.112500    4.432200
H     7.236400   -0.143700    4.954400
H     6.569200    0.406700    3.606900
C     5.987100   -1.536000    4.054300
H     6.701400   -1.951500    3.528200
H     5.163300   -1.509500    3.524200
H     5.834000   -2.059800    4.869100
C     6.408800    0.298400    7.551000
H     6.611400    1.021100    8.196500
H     7.238500    0.095000    7.049800
C     5.957100   -0.948100    8.310700
H     6.659500   -1.222200    8.937900
H     5.785900   -1.675300    7.675700
H     5.135200   -0.749200    8.808000
C     4.637700    2.312600    9.153100
C     5.561300    3.303200    8.818500
H     5.570700    3.671000    7.943300
C     6.467400    3.751000    9.773700
H     7.097700    4.426800    9.550600
C     6.449400    3.209300   11.052900
H     7.063100    3.520700   11.707700
C     5.548000    2.227100   11.374400
H     5.539500    1.858700   12.250900
C     4.651800    1.771400   10.428400
H     4.039900    1.080700   10.654100
C     2.276400    4.021900   10.226300
H     3.197600    3.810200   10.522900
H     1.740400    4.250000   11.028000
C     2.306500    5.221400    9.271100
H     2.669300    6.002600    9.739500
H     1.397600    5.417000    8.964100
H     2.873400    5.010300    8.500900
C    -0.672300    3.023600   10.559600
H    -0.223400    3.518500   11.290400
H    -1.212100    2.300700   10.967700
C    -1.588100    3.964900    9.809100
H    -2.251100    4.336200   10.427100
H    -2.044700    3.476500    9.094000
H    -1.059900    4.694300    9.420700
C    -1.918100    0.395400    9.545400
C    -1.467500   -0.235400   10.692100
H    -0.563300   -0.517200   10.755100
C    -2.344000   -0.457500   11.754900
H    -2.031700   -0.888500   12.542100
C    -3.643100   -0.061900   11.672200
H    -4.237200   -0.225400   12.395200
C    -4.098800    0.587900   10.529400
H    -5.003900    0.873000   10.473000
C    -3.239500    0.817700    9.483700
H    -3.552200    1.270800    8.709600
C     3.031900   -4.148400    5.067200
H     3.068900   -3.962700    4.106800
H     2.432700   -4.906400    5.229900
H     3.929300   -4.364900    5.393900
C     1.656300    6.327100    5.216800
H     2.619500    6.214800    5.069900
H     1.511300    6.888900    6.006700
H     1.254400    6.756300    4.432200
Cl    5.020300    4.901800    5.092000
C     5.469400    6.844700    2.252800
H     5.512100    6.091000    2.907600
Cl    6.878500    7.883900    2.464600
Cl    5.474000    6.204900    0.634400
Cl    4.013000    7.770900    2.533000
C    -4.665000    3.980400    5.464800
H    -5.666000    3.956100    5.454300
Cl   -4.097500    4.651600    3.972700
Cl   -4.128100    4.974900    6.812200
Cl   -4.049900    2.332800    5.688800
C     1.234700   -4.183700   -0.660000
H     0.696900   -4.846700   -1.163800
H     0.976600   -3.282000   -0.974900
C     0.897400   -4.311900    0.906600
H    -0.070900   -4.185900    1.069300
H     1.165100   -5.202600    1.251700
C     1.713500   -3.200200    1.579700
H     1.495600   -3.200200    2.546700
H     1.414900   -2.331700    1.211000
C     3.333400   -3.293000    1.422300
H     3.730200   -2.386900    1.376400
H     3.730500   -3.774900    2.189900
C     3.565900   -4.006900    0.203400
H     3.964200   -4.860000    0.510400
H     4.310100   -3.507400   -0.216500
C     2.729000   -4.415800   -0.953900
H     2.881100   -5.372800   -1.149400
H     2.992400   -3.894200   -1.751600

QM/MM links (counting starts at zero)
  6  141
  8  145
 10   41
 11   48
 13   55
 15   66
 16   73
 18   80
 20   91
 21   98
 23  105
 25  116
 26  123
 28  130
