111
QM: 37 at, MM: 74 at, Links: 2
Fe    4.987700    1.397700   22.254400
O     3.883700    1.736300   24.247200
O     5.346000    3.107600   23.355900
O     4.596400   -0.639900   21.920300
O     6.157800   -0.175400   23.388300
N     6.356800    1.490600   20.582500
N     3.165200    1.979900   21.181500
C     4.550400    2.782300   24.297700
C     5.445000   -1.010200   22.792500
C     5.867600    0.993500   19.433000
H     5.058100    0.537300   19.462200
C     6.495100    1.121300   18.217200
H     6.121700    0.764200   17.442900
C     7.697700    1.792300   18.179800
H     8.140700    1.916500   17.371900
C     8.239900    2.278300   19.343600
H     9.060200    2.716600   19.330700
C     7.547800    2.110000   20.549400
C     8.087900    2.574500   21.829100
H     7.655900    2.277100   22.596300
C     9.106200    3.359000   22.003900
H     9.574500    3.685000   21.268500
H     9.369500    3.595400   22.864500
C     2.149300    1.191700   21.587200
H     2.287000    0.649600   22.330700
C     0.920800    1.138000   20.969500
H     0.247000    0.583900   21.292200
C     0.718000    1.922500   19.866300
H    -0.090400    1.883100   19.406900
C     1.706200    2.764300   19.442200
H     1.573200    3.306500   18.697000
C     2.929500    2.806100   20.138700
C     3.927600    3.768600   19.721900
H     3.916200    4.022900   18.828500
C     4.835000    4.309500   20.470000
H     4.888300    4.086200   21.371000
H     5.434000    4.919700   20.106300
C     4.452700    3.693400   25.488800
C     5.575500    3.934600   26.300700
C     5.431800    4.780000   27.399300
H     6.164600    4.948400   27.947000
C     4.216000    5.368700   27.682200
H     4.134500    5.932300   28.417600
C     3.125600    5.128700   26.882600
H     2.312500    5.532300   27.084500
C     3.216100    4.290400   25.775100
C     6.901100    3.313600   26.033900
C     7.039300    1.987000   25.628700
H     6.279900    1.465200   25.507000
C     8.281300    1.436500   25.404900
H     8.340000    0.557600   25.107300
C     9.440900    2.157700   25.610000
C    10.796700    1.512900   25.394700
H    10.677500    0.601800   25.117800
H    11.296400    1.535600   26.214200
H    11.275300    1.994100   24.715500
C     9.315500    3.476000   26.013900
H    10.080700    3.985900   26.151100
C     8.074800    4.046800   26.215600
H     8.020100    4.936400   26.477200
C     2.033500    4.083800   24.900900
C     2.046700    4.430100   23.551300
H     2.821100    4.782400   23.177400
C     0.927400    4.258200   22.763300
H     0.956600    4.513700   21.870600
C    -0.234800    3.714800   23.273400
C    -1.459100    3.511800   22.405400
H    -1.271500    3.808000   21.513000
H    -2.191700    4.018100   22.762000
H    -1.691500    2.580500   22.391200
C    -0.244800    3.367400   24.605100
H    -1.014400    2.996000   24.970600
C     0.865200    3.558400   25.413900
H     0.821200    3.330300   26.314200
C     5.578700   -2.477800   23.099600
C     6.808800   -3.102300   22.857700
C     6.938300   -4.469500   23.107700
H     7.746100   -4.898200   22.935500
C     5.869600   -5.190800   23.609600
H     5.962700   -6.100700   23.779500
C     4.670300   -4.567400   23.859200
H     3.964200   -5.060600   24.208100
C     4.490600   -3.207400   23.598600
C     7.966600   -2.335700   22.309200
C     7.918300   -1.770900   21.047600
H     7.161600   -1.890300   20.521800
C     8.979000   -1.028100   20.555200
H     8.928500   -0.672300   19.698800
C    10.106800   -0.808400   21.312400
C    11.258300    0.026300   20.779500
H    11.046800    0.336700   19.896000
H    12.055300   -0.509900   20.747900
H    11.402200    0.779700   21.357900
C    10.152900   -1.376800   22.565000
H    10.909600   -1.247800   23.090600
C     9.106000   -2.137400   23.066700
H     9.170300   -2.513600   23.913600
C     3.161500   -2.570900   23.849400
C     3.039600   -1.344600   24.499400
H     3.803400   -0.909900   24.802300
C     1.802800   -0.766600   24.699500
H     1.751500    0.057300   25.128300
C     0.635100   -1.381600   24.278000
C    -0.719600   -0.770200   24.545200
H    -0.608100    0.068100   24.999500
H    -1.237300   -1.364900   25.091500
H    -1.174400   -0.623300   23.713800
C     0.755700   -2.601900   23.630900
H    -0.013500   -3.035400   23.335100
C     1.983500   -3.190600   23.415900
H     2.029700   -4.009800   22.977600

QM/MM links (counting starts at zero)
  7   37
  8   74
