139
QM: 22 at, MM: 117 at, Links: 6
Fe    2.053500    4.474300   10.211800
Br    1.208500    5.184900    7.973900
P     3.684900    3.114600    9.363100
P     0.612300    5.770900   11.413300
N     2.793000    3.888300   12.047100
H     2.406400    3.182700   12.213800
N     4.075200    6.715800   10.235300
N    -0.056000    2.289900   10.351000
C     4.443100    2.497300   10.922700
H     4.016800    1.646200   11.193200
H     5.410500    2.335100   10.790000
C     4.234100    3.552200   12.001200
H     4.528800    3.204100   12.878900
H     4.764200    4.361600   11.791900
C     2.502800    4.849100   13.142600
H     3.046200    5.668000   13.025200
H     2.735500    4.443800   14.015300
C     1.034400    5.198400   13.113700
H     0.842600    5.914800   13.770300
H     0.490500    4.404500   13.350100
C     3.279300    5.868300   10.187800
C     0.764800    3.099200   10.250800
C     5.118800    3.951500    8.522500
H     5.412900    4.673900    9.146800
C     6.349100    3.079000    8.297900
H     6.591900    2.634300    9.136500
H     7.095700    3.638000    7.996800
H     6.151700    2.404300    7.615800
C     4.736100    4.651200    7.243200
H     3.958100    5.224600    7.406500
H     4.514600    3.984900    6.559400
H     5.487200    5.199500    6.933600
C     3.367300    1.603300    8.326800
H     4.200900    1.450700    7.796100
C     3.151800    0.351600    9.131400
H     3.976300    0.125200    9.609400
H     2.907600   -0.385000    8.532700
H     2.429400    0.499500    9.777900
C     2.261600    1.803500    7.318100
H     2.461300    2.586700    6.765200
H     1.413200    1.944200    7.787600
H     2.190300    1.009600    6.748200
C     0.947100    7.602600   11.461900
H     1.922700    7.686100   11.659300
C     0.756100    8.254700   10.097700
H     1.214500    7.721800    9.413800
H     1.131200    9.159400   10.111300
H    -0.200100    8.301200    9.888400
C     0.249400    8.428700   12.538700
H     0.311800    7.963800   13.399500
H    -0.694000    8.547900   12.300600
H     0.680000    9.306000   12.610200
C    -1.220400    5.478500   11.344600
H    -1.338000    4.497500   11.502800
C    -1.838500    5.741900    9.980300
H    -1.319600    5.274600    9.291300
H    -1.829100    6.705100    9.798300
H    -2.761300    5.415300    9.970100
C    -2.024100    6.160300   12.440100
H    -1.527000    6.121000   13.283800
H    -2.885300    5.702600   12.547200
H    -2.180300    7.096000   12.195100
C     5.040500    7.813600   10.322200
C     6.326100    7.380900    9.643500
H     6.982700    8.106900    9.691100
H     6.143000    7.168700    8.704500
H     6.683100    6.587000   10.094300
C     4.398500    9.016400    9.631600
H     5.032100    9.763800    9.619700
H     3.590200    9.279800   10.118100
H     4.160900    8.775600    8.711300
C     5.275000    8.087800   11.798700
H     5.952500    8.789900   11.897400
H     5.588100    7.268900   12.237600
H     4.437300    8.381000   12.213800
C    -1.128700    1.296900   10.446400
C    -0.550200   -0.031000    9.971800
H    -1.232900   -0.729500   10.048300
H     0.222900   -0.268200   10.524600
H    -0.269600    0.050100    9.036200
C    -1.552800    1.226600   11.907600
H    -2.245800    0.541200   12.013100
H    -1.908300    2.095600   12.184900
H    -0.778800    0.997700   12.462200
C    -2.278600    1.754600    9.566900
H    -3.008900    1.103800    9.619700
H    -1.972400    1.827400    8.638100
H    -2.597000    2.628400    9.874800
B     8.338300   10.967700    6.539000
C     6.858500   11.276400    5.902800
C     5.742100   10.558800    6.341700
H     5.863700    9.921100    7.034000
C     4.468900   10.728100    5.821100
H     3.749500   10.201200    6.151100
C     4.240900   11.661400    4.822600
H     3.369700   11.805700    4.473900
C     5.330400   12.377800    4.348000
H     5.203100   13.010800    3.652200
C     6.598400   12.187100    4.868500
H     7.318400   12.692500    4.513000
C     8.780600    9.549200    5.805800
C     9.359800    9.509900    4.535100
H     9.590700   10.327600    4.109800
C     9.611800    8.305900    3.863200
H    10.007800    8.320200    3.000700
C     9.290800    7.110300    4.444900
H     9.458200    6.296200    3.985700
C     8.722100    7.091300    5.696900
H     8.506700    6.262800    6.110300
C     8.462300    8.292800    6.363800
H     8.057900    8.263000    7.222800
C     9.437500   12.163300    6.259700
C     9.098000   13.521000    6.283800
H     8.186800   13.759400    6.413100
C    10.029900   14.531800    6.130700
H     9.741600   15.437700    6.139200
C    11.361100   14.248100    5.969100
H    11.998600   14.945400    5.863700
C    11.758700   12.910700    5.962300
H    12.677300   12.686600    5.863700
C    10.811200   11.909400    6.098400
H    11.104600   11.005800    6.084800
C     8.260200   10.813900    8.168600
C     9.178600   10.076100    8.910300
H     9.856000    9.600400    8.444200
C     9.159100    9.995000   10.310300
H     9.800500    9.462200   10.764500
C     8.204900   10.691100   11.024800
H     8.183200   10.650600   11.974000
C     7.283100   11.449300   10.327300
H     6.622900   11.939200   10.803600
C     7.310200   11.504100    8.934100
H     6.658600   12.031000    8.485000
N     1.260600    9.663600    6.687000
C     0.386700    9.010400    6.741400
C    -0.761700    8.149800    6.741400
H    -1.192400    8.179600    5.860200
H    -1.395600    8.450200    7.425300
H    -0.480700    7.230700    6.935300

QM/MM links (counting starts at zero)
  2   22
  2   32
  3   42
  3   52
  6   62
  7   75
