148
QM: 58 at, MM: 90 at, Links: 0
Fe   -3.738700   28.754600   10.697700
N    -5.580900   28.228400   10.336200
N    -3.152200   27.975900    8.894200
H    -2.435200   27.370700    9.042100
H    -3.870500   27.489900    8.523000
N    -1.831700   29.220600   11.213400
H    -1.351600   28.434500   11.439700
H    -1.388900   29.622300   10.457800
N    -3.758500   30.442500    9.683400
N    -4.148100   29.644300   12.403600
N    -3.625800   26.925900   11.567200
H    -2.848300   26.450800   11.256500
H    -3.569300   27.056000   12.504700
C    -5.291800   29.685200   13.077400
H    -6.016300   29.146300   12.781700
C    -5.473200   30.494200   14.213500
H    -6.307900   30.492000   14.666100
C    -4.473300   31.269600   14.662900
H    -4.599300   31.824000   15.423400
C    -3.229000   31.250800   13.988000
C    -3.110100   30.387000   12.881300
C    -1.863100   30.240000   12.231300
C    -0.792300   30.993900   12.616300
H     0.036300   30.907200   12.159700
C    -0.910300   31.897900   13.686400
H    -0.166200   32.431700   13.940100
C    -2.095400   32.011200   14.365700
H    -2.158200   32.609200   15.101200
C    -4.847600   26.194800   11.314900
C    -5.052500   24.886800   11.666200
H    -4.375000   24.403700   12.124700
C    -6.271800   24.263600   11.345600
H    -6.396600   23.345000   11.552500
C    -7.279400   24.961700   10.738100
H    -8.099700   24.524200   10.543100
C    -7.120000   26.316000   10.397000
C    -5.862900   26.913600   10.676600
C    -6.557700   28.932600    9.788000
H    -6.381600   29.839800    9.566000
C    -7.828300   28.425800    9.514200
H    -8.490100   28.981000    9.119600
C    -8.107600   27.133500    9.814300
H    -8.970900   26.779900    9.633300
C    -3.048200   30.357700    8.492400
C    -2.660300   29.069100    8.078100
C    -1.898300   28.899600    6.956700
H    -1.642700   28.029500    6.673000
C    -1.494900   30.038800    6.224700
H    -0.929200   29.927700    5.470900
C    -1.893300   31.280400    6.568700
H    -1.631000   32.025600    6.042100
C    -2.709200   31.478200    7.722300
C    -3.177100   32.745000    8.149800
H    -2.967300   33.531200    7.659800
C    -3.931700   32.810400    9.277000
H    -4.294800   33.643600    9.553500
C    -4.181900   31.649100   10.042700
H    -4.673900   31.735400   10.850000
C   -11.569700   24.268700   12.860800
C   -11.864500   23.333700   13.872400
H   -12.261600   23.644800   14.677500
C   -11.600700   21.989600   13.745000
H   -11.834100   21.393100   14.447000
C   -11.001600   21.506700   12.606100
H   -10.816600   20.579100   12.518300
C   -10.671100   22.384500   11.587100
H   -10.244600   22.064800   10.801000
C   -10.964400   23.728900   11.721800
H   -10.744700   24.313800   11.007000
C   -13.184200   26.261800   13.868000
C   -13.375300   27.555900   14.384700
H   -12.666000   28.184400   14.321000
C   -14.572200   27.950700   14.989400
H   -14.662300   28.836800   15.320300
C   -15.624600   27.066800   15.110900
H   -16.431000   27.329900   15.539500
C   -15.485300   25.796900   14.601400
H   -16.206900   25.182500   14.659700
C   -14.277300   25.401400   13.990900
H   -14.205200   24.517000   13.651700
C   -10.458700   26.581400   15.403700
H   -11.288500   26.605300   15.865400
C    -9.290100   26.858100   16.106400
H    -9.340500   27.071400   17.031000
C    -8.067400   26.827900   15.485600
H    -7.275300   27.045800   15.963400
C    -8.006200   26.472200   14.143200
H    -7.168600   26.412800   13.701200
C    -9.169700   26.207400   13.461000
H    -9.106600   25.968200   12.544000
C   -10.451900   26.270300   14.045100
C   -11.738200   26.733900   11.718900
C   -11.124300   27.990900   11.620800
H   -10.726800   28.363600   12.398800
C   -11.073900   28.717500   10.433600
H   -10.656900   29.570600   10.417700
C   -11.629500   28.200500    9.281400
H   -11.568200   28.676400    8.461400
C   -12.280800   26.974900    9.337100
H   -12.681500   26.614100    8.554700
C   -12.345900   26.276100   10.536000
H   -12.822000   25.454300   10.557800
B   -11.761900   25.877600   13.122800
C    -5.194100   16.712700    4.273300
H    -5.416900   17.635900    4.293800
C    -6.212800   15.780500    4.438700
H    -7.113900   16.069700    4.518500
C    -5.909300   14.423100    4.485500
H    -6.594400   13.775300    4.604400
C    -4.620300   14.049400    4.359600
H    -4.395200   13.127200    4.403000
C    -3.612900   14.987400    4.166400
H    -2.716500   14.684600    4.090400
C    -3.868800   16.357000    4.081500
C    -3.475300   18.591800    6.199800
H    -3.789400   17.733200    6.457000
C    -3.562800   19.649700    7.116200
H    -3.924100   19.488700    7.980200
C    -3.146800   20.886200    6.797100
H    -3.227700   21.600500    7.417700
C    -2.598000   21.097600    5.551300
H    -2.280300   21.960300    5.312900
C    -2.510400   20.052000    4.646600
H    -2.136600   20.228000    3.791800
C    -2.941500   18.758300    4.923300
C    -3.987000   18.528900    1.750900
H    -4.794000   18.364000    2.225700
C    -4.070300   19.143200    0.505100
H    -4.917900   19.388900    0.152400
C    -2.928600   19.394100   -0.215200
H    -2.975400   19.817000   -1.064700
C    -1.738300   19.027500    0.307400
H    -0.940500   19.181600   -0.186400
C    -1.667200   18.427100    1.560600
H    -0.811000   18.198400    1.902600
C    -2.788600   18.143200    2.339400
C    -1.218900   16.889700    4.140000
C    -0.408700   17.224300    5.238000
H    -0.715900   17.895500    5.835300
C     0.813600   16.629300    5.494200
H     1.319500   16.889800    6.255100
C     1.296000   15.652500    4.640700
H     2.131600   15.233400    4.811500
C     0.547300   15.295100    3.534000
H     0.864600   14.619400    2.947100
C    -0.663900   15.916300    3.277800
H    -1.141000   15.678900    2.491300
B    -2.707600   17.520700    3.861900

QM/MM links (counting starts at zero)
