115
QM: 45 at, MM: 70 at, Links: 6
Fe   -0.911100    7.954000    6.946900
O    -0.236400    9.466100    5.610500
F     2.639000   13.483900    5.635700
F    -4.304600   13.596000    8.063100
C    -0.820500   14.226600    4.937000
H    -1.378900   14.937400    4.716400
C    -3.149700   11.370300    4.789900
H    -4.063800   11.232100    4.687500
O    -2.602700    8.005600    5.757700
O    -0.076500    6.415400    5.727200
H     0.490000    6.715500    4.989700
H    -0.735600    5.939500    5.200800
N    -2.689500   15.801800    8.557600
C    -2.949500   13.411600    8.260700
C    -0.751400   10.490500    8.492700
N    -2.683900   12.658900    4.648000
C    -1.294100   12.833400    4.958300
O     0.790600    8.015600    8.105600
C     0.494800   14.406100    5.265800
N     0.993300   12.606600    9.091900
O     2.505200    8.880400    9.093200
O    -4.266800    8.897900    4.581800
C    -2.382100   10.286100    5.065600
C    -1.150400   11.833900    8.531100
C     0.829700   12.048300    5.517700
H     1.391000   11.333600    5.717200
C     0.680200   10.281200    8.716700
N     1.081400   15.714600    5.240600
C    -0.479600   11.806500    5.263200
O    -1.754000    6.540100    8.267300
H    -2.614900    6.639000    8.378500
H    -1.685400    6.678800    9.139500
C     1.381300    9.000100    8.662400
C    -3.109700    8.967700    5.120000
C    -2.159800   14.510800    8.569600
C    -2.520400   12.118000    8.228900
H    -3.108600   11.430900    8.015000
C    -0.320400   12.943000    8.858600
C     1.341700   13.304400    5.487200
O    -1.526600    9.575800    8.174500
C    -1.074400   10.428200    5.382500
C    -0.840200   14.179300    8.798900
H    -0.250200   14.887400    8.927000
C     1.464200   11.410200    9.089300
H     2.349200   11.275800    9.341200
C    -1.816400   16.848600    9.102500
H    -1.079500   17.015600    8.494600
H    -1.452400   16.566800    9.956000
C    -3.572900   13.765500    4.246300
H    -3.665400   14.366100    5.001200
H    -3.134200   14.259400    3.535800
N     1.791600   18.438800    5.786800
H     1.871400   19.251800    5.917500
H     1.150200   18.234900    6.216200
C     1.828300   16.081000    6.490800
H     2.370000   15.334500    6.793600
H     1.210100   16.322000    7.198600
N    -3.362000   18.518500    7.987600
H    -3.857700   19.246700    8.113800
H    -2.771900   18.309800    7.435800
C    -2.671300   18.149700    9.284100
H    -3.335900   18.007700    9.976400
H    -2.096400   18.879100    9.563500
C     1.024700   18.050000    4.626800
H     1.629200   17.867400    3.890800
H     0.447600   18.783500    4.364700
C    -4.883300   13.411600    3.796900
H    -4.816900   12.744300    3.108300
H    -5.323000   14.189000    3.446400
H    -5.390700   13.060600    4.532600
C     3.320100   13.309400    9.797200
H     3.751700   12.979300    9.013300
H     3.294900   12.618500   10.468900
H     3.806800   14.064100   10.143700
C     1.907000   13.733100    9.465800
H     1.531500   14.197700   10.230500
H     1.940900   14.363900    8.728800
C    -4.199000   17.392000    7.530200
H    -4.914900   17.236000    8.165600
H    -4.597400   17.642300    6.682400
C     2.732000   17.294800    6.117000
H     3.175000   17.758100    6.841600
H     3.292100   17.079700    5.354600
C    -3.437400   16.188100    7.360500
H    -2.813700   16.311400    6.627500
H    -4.038500   15.466800    7.118900
C     0.195400   16.846100    4.885300
H    -0.422900   17.022200    5.611300
H    -0.319500   16.625300    4.093500
S    -3.799300   17.957200    3.150000
O    -4.624100   16.751400    3.089000
O    -4.270100   18.914800    4.105800
O    -2.425900   17.616300    3.295800
O    -3.878500   18.618200    1.854700
O     5.209400   16.449800    9.141000
H     5.200000   16.474000    8.291000
H     5.898900   16.894700    9.358800
O    -6.902500   16.372600    4.587100
H    -6.258800   15.868500    4.408100
H    -7.448500   15.864800    4.135800
O    -7.010000   14.867200    6.933600
H    -7.286600   15.330200    6.174500
H    -7.643300   14.101400    6.875600
O    -1.078400   19.483100    6.774500
H    -0.596700   20.049000    6.370500
H    -1.424900   20.063500    7.330900
O     2.919700   16.818700   11.027500
H     3.065900   16.758100   10.192700
H     3.377500   16.225400   11.435600
O    -6.845800   12.060700    6.920400
H    -6.959000   12.182100    6.140300
H    -6.209100   11.496200    6.925600
O    -5.261300    9.947200    7.507700
H    -4.906900    9.946800    6.761100
H    -5.177300    9.493200    8.037000

QM/MM links (counting starts at zero)
 12   45
 12   83
 15   48
 19   74
 27   54
 27   86
