106
QM: 42 at, MM: 64 at, Links: 3
Fe    6.409900    2.026800    1.167900
O     7.625600    1.462300   -0.577600
O     4.887700    1.271100    0.369700
O     2.897100   -0.245800   -0.107000
O     7.092200    0.530600    2.094100
O     7.374500   -1.776100    3.171500
N     5.270600    2.700000    2.834600
N     3.532900    2.991400    4.184500
N     6.094000    3.774700    0.091200
N     7.992700    3.162500    1.822900
C     3.937700    2.536300    2.949000
C     4.616100    3.486800    4.847200
C     5.681700    3.313800    4.024000
C     5.082500    4.047000   -0.622600
C     2.866300    3.626400   -1.582100
C     1.767700    2.816200   -1.855700
C     1.731900    1.509200   -1.376600
C     2.793200    1.013400   -0.625100
C     3.891000    1.824900   -0.351400
C     3.927500    3.130500   -0.830600
C     7.228500    4.709200    0.114300
C     7.901400    4.594600    1.436200
C    10.198600    1.165300    3.921800
C    10.378500   -0.087800    4.503100
C     9.452800   -1.101200    4.272000
C     8.346100   -0.864200    3.459700
C     8.167500    0.388800    2.878400
C     9.091900    1.402200    3.109500
C     8.983400    2.746900    2.590200
H     6.539500    3.615500    4.355900
H     4.394300    4.455200   -1.167400
H     2.894000    4.638800   -1.953000
H     0.946500    3.200100   -2.438200
H     0.881800    0.880600   -1.588200
H     7.852400    4.481400   -0.589800
H     6.912100    5.615300   -0.015800
H     7.392800    5.078700    2.102600
H     8.792100    4.969400    1.376600
H    10.914800    1.950200    4.099300
H    11.234200   -0.270900    5.131800
H     9.591000   -2.070900    4.722000
H     9.105200    3.677000    2.348200
C     5.447800    5.039600    6.604400
C     5.410200    5.540300    7.903200
C     4.461600    5.065600    8.805500
C     3.549700    4.089800    8.407900
C     3.587800    3.590500    7.109100
C     4.728600    4.065500    6.208000
C     1.836600   -1.149800   -0.385500
C     7.349900   -2.985000    3.908400
H     6.182100    5.407400    5.907600
H     6.114300    6.294900    8.210900
H     4.431300    5.452400    9.810000
H     2.814800    3.722400    9.105900
H     2.883200    2.834600    6.801400
H     2.087200   -1.983100    0.037700
H     1.702700   -1.296300   -1.332800
H     1.015700   -0.821500    0.009700
H     6.539000   -3.435300    3.636000
H     7.308000   -2.789500    4.855700
H     8.111600   -3.556200    3.730900
C    10.653000    5.127200    4.504300
C     9.395100    5.578600    4.891000
C     8.907100    6.787000    4.398500
C     9.677800    7.542600    3.519300
C    10.937100    7.091200    3.132600
C    11.423700    5.882800    3.625100
C    13.936600    7.383500    4.579700
C    14.998900    8.080100    5.147600
C    16.310100    7.717200    4.848400
C    16.556900    6.657300    3.980200
C    15.493300    5.960700    3.412300
C    14.184200    6.324000    3.712600
C    13.360900    3.475900    4.847200
C    13.681700    2.183800    5.254600
C    13.974900    1.208600    4.304900
C    13.948400    1.524700    2.950200
C    13.626300    2.816900    2.542800
C    13.333600    3.793400    3.492500
C    11.761500    4.956800    0.733300
C    11.630500    5.050800   -0.649400
C    12.612900    5.690000   -1.399700
C    13.727600    6.235000   -0.767300
C    13.858600    6.141000    0.615300
C    12.876200    5.501900    1.365600
B    12.951100    5.396800    3.060800
H    11.030900    4.192400    4.886100
H     8.797500    4.994500    5.572000
H     7.932400    7.136300    4.697700
H     9.300700    8.477700    3.138700
H    11.534100    7.675600    2.452800
H    12.922400    7.665900    4.812000
H    14.809200    8.900700    5.820100
H    17.133100    8.256500    5.287400
H    17.571200    6.375000    3.747900
H    15.684400    5.140100    2.739800
H    13.133600    4.231500    5.581700
H    13.704300    1.938900    6.304100
H    14.223400    0.208100    4.619800
H    14.175400    0.770200    2.214500
H    13.605500    3.063100    1.493300
H    11.266200    4.462300    1.314600
H    10.767900    4.629900   -1.138200
H    12.511900    5.763200   -2.471000
H    14.487900    6.729200   -1.349800
H    14.721700    6.563300    1.104200

QM/MM links (counting starts at zero)
  3   48
  5   49
 11   47
