131
QM: 33 at, MM: 98 at, Links: 8
Fe   -0.097000    4.802700   11.465100
P     0.541300    5.855000   13.356200
P    -1.017600    2.971100   12.453600
P     0.812600    6.631400   10.464000
P    -1.200100    4.062600    9.678800
N     1.518700    3.903400   11.124700
C    -2.749800    3.278300   10.267900
C     2.210300    7.102000   11.519200
C    -2.562000    2.491900   11.541400
C     1.696300    7.250400   12.936400
C     3.547700    2.457000   10.424600
C     3.305600    1.255600    9.789800
C     2.453900    3.268700   10.853000
C     5.633900    1.017400    9.478900
N     6.767100    0.248500    8.904200
C     4.370800    0.523300    9.285600
C     4.844000    2.897800   10.628400
C     5.913800    2.171500   10.149000
O     7.902500    0.583100    9.219000
O     6.517500   -0.654000    8.134900
H    -1.367600    5.468000   11.690300
H    -3.449000    2.598700   12.121300
H     2.945800    6.372200   11.494400
H     2.652500    7.878100   11.233100
H    -2.524200    1.534300   11.442100
H     2.440100    7.255100   13.623400
H     4.245800   -0.299000    8.868900
H     1.186800    8.048900   12.983400
H     6.866300    2.459900   10.214300
H     2.438100    0.897100    9.678800
H    -3.117100    2.666400    9.613500
H    -3.313300    4.093900   10.488600
H     4.923500    3.702300   11.011100
C    -3.191600    3.969300   15.740700
C    -0.042500    7.461900   15.551300
C    -0.263900    0.273400   11.844400
C    -2.769600    3.097100   16.717700
C    -1.679300    2.970000   14.174600
C     2.097000    0.455700   13.242000
C     1.252700    1.538200   13.163600
C     3.035700    3.289300   16.212300
C     0.585800   -0.801000   11.920200
C     0.052400    1.478800   12.475300
C    -0.585000    6.801200   14.437200
C     2.848400    4.601500   14.249100
C     1.614300    6.496500    8.828400
C    -0.796200    8.330200   16.275000
C     3.630400    3.805500   15.058900
C    -1.276500    2.071900   15.154300
C    -2.643000    3.906600   14.467200
C    -1.928500    5.182900    8.415700
C     0.982300    0.900700    7.106900
C    -1.944400    9.604600   11.026700
C    -0.077300    8.215200   10.361900
C    -0.363500    2.787800    8.662600
C     0.981600    4.370100   15.726400
C     1.529000    4.886700   14.549500
C     1.737400    3.567000   16.550600
C    -1.286600    8.373200   10.996700
C     0.458900    9.329400    9.707500
C    -1.834200    2.132400   16.422600
C    -1.385500   10.683300   10.401100
C    -1.898100    7.046500   14.117200
C     2.884200    5.966400    8.690000
C    -0.829400    1.481600    8.575000
C    -0.130900    0.548200    7.808300
C     1.430000    2.189300    7.168300
C    -1.688400    5.062200    7.046800
C    -2.664400    7.935000   14.856400
C    -0.204200   10.544400    9.740200
C     0.777100    3.122000    7.953300
C     1.774000   -0.729800   12.613700
C    -3.148800    6.859900    6.577900
C    -2.094400    8.572200   15.926200
C    -2.817100    6.158600    8.841500
C     0.898500    6.867000    7.675100
C    -3.437800    6.991600    7.933700
C     1.516900    6.639200    6.417200
C     2.713600    6.130100    6.276200
C    -2.303400    5.916600    6.149500
C     3.438000    5.799100    7.407300
H     2.922500    0.605200   13.649500
H    -2.367200    6.657000   13.414400
H    -0.427700    8.725300   16.967200
H    -3.075600    6.212000    9.887800
H    -3.159800    3.075800   17.633400
H     0.842100    7.265800   15.791700
H    -2.545500    9.209500   16.497000
H     0.923200    4.047600    7.915400
H    -3.004600    4.524600   13.793200
H     3.271000    5.019500   13.505900
H     2.229500    2.474100    6.596200
H     0.092100    4.492600   15.948400
H    -0.661100    1.413300   14.929600
H    -1.694000    7.678700   11.402900
H    -3.561200    7.301400    6.073700
H    -0.990000    4.392900    6.818200
H    -3.610500    8.141500   14.655300
H     0.240900   11.267100    9.234700
H     1.352600    9.277100    9.378300
H    -3.865600    4.581600   15.883100
H     1.250300    3.132700   17.306800
H     2.424800   -1.566400   12.669900
H    -1.619800    1.495200   17.006400
H     1.467300    2.271200   13.545000
H    -0.521600   -0.356000    7.824000
H     4.226300    5.553400    7.118700
H    -1.644800    1.299400    8.868900
H     3.509800    2.712600   16.706000
H    -1.136800    0.178000   11.429000
H    -4.100600    7.511400    8.255000
H     0.439500   -1.779900   11.481300
H     3.409000    5.923700    9.469800
H    -1.876500   11.534100   10.553900
H     1.363100    0.320400    6.478600
H    -2.080200    5.909400    5.277000
H    -2.747900    9.682900   11.585800
H     4.587000    3.524300   14.890400
H     0.036800    7.226600    7.693400
H     0.968100    6.941800    5.930000
H     3.395100    5.802600    5.446800
P    -5.773800    6.129100   12.359300
F    -5.138000    4.761000   12.079500
F    -7.063500    5.428800   12.773100
F    -6.276200    6.154700   10.877800
F    -5.269000    6.101700   13.863800
F    -4.472800    6.810100   11.922800
F    -6.389100    7.500700   12.605900
Cl   -6.230800    2.695600   18.168900
Cl   -8.537500    2.917700   19.738900
C    -7.056600    3.549200   19.413700

QM/MM links (counting starts at zero)
  1   43
  1   56
  2   37
  2   42
  3   45
  3   53
  4   50
  4   54
