125
QM: 57 at, MM: 68 at, Links: 2
Fe   -0.425700    5.294700   18.938500
O    -0.449900    7.050800   18.232500
O    -2.010700    4.958000   17.964200
O     2.607500   12.560900   19.044800
O     4.026800   11.116200   20.009400
O    -5.324900   -0.006500   15.869300
O    -3.920400   -1.012500   17.313800
N     1.203000    5.557800   19.914800
N    -0.377100    3.550700   19.726400
N    -1.552200    5.963600   20.449900
N    -3.336900    6.511200   21.573900
N     0.554700    4.677500   17.327800
N     1.596800    3.447000   15.845900
C     0.323500    8.046000   18.589900
C     0.010700    9.355000   18.132900
C     0.845200   10.412000   18.376200
C     2.029100   10.256000   19.129100
C     2.893200   11.421000   19.368700
C     2.335800    9.005900   19.618900
C     1.501800    7.899800   19.387500
C     1.911200    6.641000   19.953800
C     1.747800    4.330600   20.521800
C     0.545000    3.459000   20.867000
C    -1.100100    2.535100   19.370600
C    -2.063600    2.558000   18.307800
C    -2.691700    1.347200   17.958300
C    -3.675000    1.299200   16.985500
C    -4.389900    0.052400   16.659300
C    -4.059700    2.502400   16.341900
C    -3.480600    3.688100   16.659600
C    -2.478300    3.772100   17.662100
C    -2.839600    5.785800   20.568900
C    -2.310800    7.213700   22.128100
C    -1.210300    6.875500   21.443600
C     1.146000    3.513600   17.094500
C     1.276200    4.622900   15.222300
C     0.632200    5.376700   16.131100
H    -4.226600    6.535200   21.845700
H     2.043800    2.729300   15.460400
H    -0.775100    9.488000   17.653400
H     0.627400   11.253000   18.043900
H     3.109400    8.893500   20.124400
H     2.737800    6.603900   20.377400
H     2.324600    3.889900   19.877600
H     2.262600    4.561900   21.311500
H     0.093200    3.780800   21.661400
H     0.791600    2.528500   20.992800
H    -0.978600    1.735500   19.830700
H    -2.435100    0.561800   18.384400
H    -4.719600    2.469600   15.685300
H    -3.744100    4.461500   16.216300
H    -3.344700    5.222900   20.027600
H    -2.365900    7.807100   22.842200
H    -0.351600    7.194000   21.605100
H     1.228700    2.831800   17.722100
H     1.477700    4.858600   14.345100
H     0.283800    6.226500   15.985200
C     4.889100   12.236900   20.346200
C     6.040000   11.683900   21.128100
C    -4.629900   -2.267800   17.073900
C    -3.891900   -3.334700   17.837400
H     5.192000   12.647100   19.521500
H     4.380600   12.884900   20.858500
H     6.506900   11.032700   20.599200
H     6.644000   12.391800   21.367700
H     5.703600   11.267200   21.923800
H    -5.543500   -2.176200   17.387800
H    -4.632800   -2.450000   16.122600
H    -4.349100   -4.174600   17.747100
H    -3.000600   -3.416500   17.487800
H    -3.852900   -3.093600   18.765500
O     2.151200    0.736300   15.237300
C     2.781300   -0.238900   14.393200
C     2.515000   -1.647200   14.832100
H     1.340600    0.614100   15.226100
H     2.442400   -0.079600   13.498500
H     3.729500   -0.041500   14.417000
H     1.569500   -1.809700   14.816800
H     2.954300   -2.262400   14.242000
H     2.845300   -1.770400   15.725900
C     5.661300    6.281000   19.616800
C     4.989200    5.204300   19.032900
C     4.227700    5.285100   17.887700
C     4.069300    6.517700   17.270400
C     4.676800    7.623800   17.821100
C     5.461700    7.506000   18.957300
C     7.341800    7.420900   21.423900
C     8.204200    8.035100   20.522100
C     8.926600    9.187000   20.800700
C     8.795800    9.793500   22.047200
C     7.973700    9.212100   22.988100
C     7.268100    8.046000   22.689500
C     7.641400    4.860700   20.831300
C     8.394500    4.440800   21.928800
C     9.316500    3.401200   21.869100
C     9.528800    2.732500   20.673900
C     8.828900    3.119800   19.562100
C     7.918000    4.179000   19.631700
C     5.414400    5.660300   22.146500
C     5.277400    4.391700   22.720100
C     4.267400    4.068800   23.622300
C     3.330700    5.016700   23.998100
C     3.430200    6.296300   23.454500
C     4.436700    6.594100   22.555400
B     6.519300    6.058500   21.009100
H     5.062400    4.375300   19.449600
H     3.824700    4.529100   17.525300
H     3.558600    6.597300   16.497500
H     4.566400    8.458300   17.425300
H     5.868100    8.264100   19.309000
H     8.302000    7.647800   19.680800
H     9.488500    9.556800   20.158800
H     9.262400   10.572300   22.248700
H     7.880200    9.600400   23.829400
H     6.731700    7.660900   23.342000
H     8.273600    4.883600   22.739100
H     9.792000    3.152500   22.629800
H    10.136100    2.030000   20.627300
H     8.959100    2.678000   18.756100
H     7.480200    4.450600   18.856100
H     5.887100    3.731700   22.476700
H     4.222100    3.214700   23.985600
H     2.644900    4.802900   24.591600
H     2.820100    6.950800   23.707500
H     4.476400    7.452600   22.198700

QM/MM links (counting starts at zero)
  4   57
  6   59
