172
QM: 74 at, MM: 98 at, Links: 15
Fe    4.443400    3.522600    6.817200
Fe    1.701800    1.373600    6.624500
Fe    0.288600    3.808300    4.579600
Fe    1.782200    5.771800    7.006800
Fe    4.580000    1.155500    4.386300
Fe    3.615800    3.833400    3.473300
Fe    4.280200    6.689400    5.647300
Fe   -0.462200    3.995200    7.896000
Fe    1.579800    0.816100    3.686100
Fe    2.132100    6.418200    3.442900
Fe    2.118100    2.879400    9.176200
O     0.192100    7.074700    7.291500
O    -1.454300    5.749700    8.010300
O    -2.067400    3.102800    7.198800
O    -1.588100    2.913400    5.010200
O    -0.311400    3.339800    2.622200
O     0.492500    1.306200    2.142200
O     3.290100    4.167100    1.472200
O     2.257800    6.117500    1.469900
O     2.930500    8.283100    3.109000
O     4.540000    8.418600    4.660100
O    -0.949600    5.494900    4.180200
O     0.309700    7.082600    3.229600
O    -1.055600    3.733200    9.844100
O     0.839600    2.986700   10.771500
O     0.161900   -0.035300    6.424400
O     0.201600   -0.501700    4.268300
O     2.603100    7.166100    8.332500
O     4.435200    7.836800    7.284600
O     6.385900    4.244000    6.320100
O     6.198900    6.384300    5.677900
O     5.574600    3.753300    2.733500
O     6.192300    1.681900    3.366400
O     2.591700    1.058800    9.853400
O     2.367400   -0.075100    7.950000
O     5.090100    4.203300    8.680300
O     3.571100    3.671800   10.222100
O     5.578200    1.851400    7.414400
O     5.688800    0.326400    5.784500
O     4.594300   -0.553000    3.250500
O     2.431300   -0.739300    2.677800
O     1.883400    4.566300    3.871800
O     1.093600    2.131200    4.970800
O     2.901600    2.634100    7.479300
O     0.488000    2.202700    8.084400
H    -0.045700    1.533800    8.564400
O     0.500900    4.484300    6.366500
O     3.186300    1.875400    2.983800
H     3.420800    1.651100    2.058800
O     2.895200    0.391300    5.290700
H     2.966700   -0.568400    5.478500
O     4.246300    2.905000    5.031000
O     4.104100    5.826400    3.790700
H     4.739400    6.181800    3.134500
O     3.553000    5.204900    6.558900
O     1.339100    4.720900    8.708100
H     1.206600    5.294800    9.491700
O     2.196200    6.987000    5.415900
H     1.921900    7.916700    5.557300
C    -0.976800    6.854900    7.606800
C    -2.275700    2.648200    5.993200
C    -0.136900    2.334600    1.864000
C     2.742100    5.052700    0.888000
C     3.852000    8.880800    3.691000
C    -0.787500    6.591400    3.637700
C    -0.369900    3.355900   10.801700
C    -0.285600   -0.645900    5.422900
C     3.662000    7.790300    8.258300
C     6.838000    5.351100    5.939900
C     6.422100    2.850700    2.840100
C     2.675500   -0.006700    9.162500
C     4.647500    4.191200    9.830200
C     5.880600    0.719300    6.990100
C     3.628300   -1.101100    2.650000
C    -1.975000    8.008900    7.516400
H    -1.696500    8.619400    6.830200
H    -2.009200    8.468000    8.358000
H    -2.844900    7.662500    7.305400
C    -3.517100    1.792600    5.877300
H    -3.501800    1.319000    5.042600
H    -4.296300    2.351400    5.914400
H    -3.539700    1.162300    6.600600
C    -0.795400    2.423700    0.524000
H    -0.462200    1.724900   -0.044100
H    -0.603800    3.276400    0.127500
H    -1.746000    2.325900    0.626000
C     2.616800    5.070000   -0.588900
H     3.287600    4.502700   -0.973700
H     2.735400    5.968300   -0.908800
H     1.746000    4.753600   -0.839300
C     4.255600   10.269000    3.192500
H     3.484400   10.720200    2.840100
H     4.918000   10.181800    2.503900
H     4.618400   10.777200    3.920500
C    -1.999400    7.464000    3.496200
H    -2.735700    6.939000    3.174000
H    -1.813500    8.171200    2.874900
H    -2.223600    7.841000    4.349400
C    -1.015300    3.390600   12.158000
H    -1.956300    3.221300   12.067500
H    -0.882900    4.256200   12.552100
H    -0.619700    2.720300   12.716700
C    -1.415000   -1.577300    5.629200
H    -1.828200   -1.769100    4.785300
H    -2.058500   -1.174800    6.218100
H    -1.090300   -2.391900    6.021000
C     4.037000    8.671500    9.424500
H     3.419200    8.527400   10.145500
H     4.004300    9.591400    9.153200
H     4.925400    8.454200    9.716600
C     8.328000    5.440800    5.796100
H     8.586500    6.361300    5.703400
H     8.605100    4.950700    5.019400
H     8.747000    5.068700    6.575100
C     7.806300    3.090100    2.332400
H     8.152200    3.898300    2.717200
H     7.785500    3.176600    1.374800
H     8.368200    2.351900    2.575800
C     3.115400   -1.235200    9.860400
H     3.712600   -1.728400    9.292400
H     2.350200   -1.775900   10.066700
H     3.569500   -0.997100   10.671800
C     5.468700    4.869200   10.896700
H     6.402400    4.779800   10.688100
H     5.291800    4.458900   11.747600
H     5.236800    5.799700   10.936100
C     6.500400   -0.249400    7.901300
H     6.366600    0.033200    8.807800
H     7.441400   -0.304500    7.718100
H     6.097400   -1.111200    7.771500
C     3.972800   -2.326900    1.803800
H     4.846900   -2.645300    2.042600
H     3.962600   -2.087100    0.874100
H     3.325800   -3.018400    1.963700
N     1.083400    9.600600    5.520200
C     0.839600   10.125800    6.730500
C    -0.023200   11.289900    6.774500
C    -0.529800   11.792400    5.615300
C    -0.282900   11.209800    4.398100
C     0.558900   10.090500    4.395800
N     1.136100    6.292900   11.066000
C     0.504300    7.529800   11.008000
C     0.706900    8.460800   12.018900
C     1.543000    8.156200   13.087700
C     2.175800    6.920700   13.143300
C     1.971500    5.988300   12.132500
N     3.233700   -2.308700    5.849500
C     4.281300   -3.008000    5.332400
C     4.230900   -4.431400    5.392700
C     3.145000   -5.039700    5.965400
C     2.148800   -4.339000    6.484700
C     2.202700   -2.915200    6.438300
N    -0.840100    0.374300    9.702700
C    -2.098800   -0.066900    9.308600
C    -2.788900   -0.983700   10.094500
C    -2.221400   -1.459500   11.270000
C    -0.963200   -1.018300   11.661800
C    -0.272600   -0.101400   10.878200
N     3.601200    1.160700    0.313000
C     4.842700    1.140300   -0.192400
C     5.024100    0.819200   -1.553400
C     3.922000    0.520500   -2.309200
C     2.667900    0.581200   -1.773600
C     2.547000    0.933300   -0.408000
N     5.671600    7.185300    1.833900
C     6.893800    7.580400    2.200200
C     7.678100    8.475000    1.407300
C     7.084000    8.923000    0.238800
C     5.795400    8.558900   -0.120600
C     5.118100    7.656800    0.741900
O    -4.486400    3.536800    9.060500
O     6.076800    4.513400   -0.292100

QM/MM links (counting starts at zero)
 59   74
 60   78
 61   82
 62   86
 63   90
 64   94
 65   98
 66  102
 67  106
 68  110
 69  114
 70  118
 71  122
 72  126
 73  130
