121
QM: 37 at, MM: 84 at, Links: 8
Fe    3.486300    6.172500   14.966900
P     4.012300    7.282100   16.881200
P     2.775500    4.158800   15.730600
N     4.196000    7.775200   13.981500
N     3.010900    5.597900   13.088500
N     5.269900    5.498300   14.862000
N     1.677300    6.806000   15.082400
C     3.608000    7.863500   12.594800
H     4.222200    8.410400   12.044200
C     3.635200    6.459500   12.049700
H     3.058700    6.433500   11.244700
C     5.254800    8.460200   14.182300
H     5.565300    8.958400   13.450000
C     6.038100    8.565500   15.398500
C     7.233300    9.259600   15.291600
H     7.540400    9.514400   14.440700
C     7.985100    9.585700   16.399400
H     8.824900    9.997900   16.298700
C     7.502100    9.308300   17.630600
H     7.955900    9.618500   18.393100
C     6.338300    8.565500   17.768300
H     6.046200    8.334600   18.631500
C     5.587900    8.152300   16.676900
C     2.071100    4.825700   12.654600
H     1.949200    4.820000   11.723600
C     1.182700    3.969700   13.406900
C     0.112000    3.444300   12.652600
H     0.030500    3.664000   11.742100
C    -0.822400    2.599700   13.252700
H    -1.542200    2.262300   12.751200
C    -0.686300    2.258900   14.588700
H    -1.317700    1.690500   14.993600
C     0.373400    2.754800   15.334800
H     0.454200    2.513600   16.241200
C     1.316200    3.599500   14.767500
C     0.587700    7.119700   15.104600
C     6.340000    5.131400   14.769600
C     5.048200    5.965900   11.639700
C     5.322000    4.603800   11.668100
H     4.674600    4.004800   11.992800
C     6.546600    4.119200   11.215900
H     6.711500    3.194100   11.228200
C     7.525600    4.983100   10.751400
H     8.356900    4.654700   10.463700
C     7.251900    6.328200   10.720600
H     7.899200    6.929400   10.397900
C     6.014300    6.810500   11.164500
H     5.843400    7.734500   11.137800
C     2.264800    8.566700   12.623800
C     2.207300    9.795200   13.256800
H     2.966300   10.136000   13.692600
C     1.010700   10.533400   13.246600
H     0.975100   11.363400   13.684300
C    -0.087500   10.065800   12.615600
H    -0.879000   10.575300   12.603200
C    -0.042600    8.845200   11.992800
H    -0.813500    8.507800   11.573500
C     1.130700    8.099100   11.978400
H     1.155700    7.274800   11.528300
C     3.974300    2.821600   15.384100
C     3.885800    2.106000   14.181700
H     3.127900    2.219200   13.637100
C     4.888800    1.235300   13.774800
H     4.827300    0.779000   12.954700
C     5.983000    1.055300   14.615400
H     6.681300    0.485700   14.348200
C     6.059800    1.704100   15.840400
H     6.775500    1.533100   16.424100
C     5.066200    2.611000   16.195900
H     5.139600    3.086500   17.001600
C    -0.819500    7.514800   15.186800
H    -1.346900    6.953200   14.599000
H    -0.911000    8.442100   14.917500
H    -1.129700    7.412900   16.099300
C     7.704900    4.624100   14.638000
H     7.918900    4.073900   15.406700
H     8.322800    5.369200   14.588700
H     7.774900    4.092000   13.830300
C     2.164000    3.893800   17.431200
C     1.102400    4.726100   17.848400
H     0.827500    5.446200   17.309900
C     0.473700    4.478100   19.040500
H    -0.233700    5.036300   19.311800
C     0.845200    3.454500   19.838000
H     0.373100    3.275600   20.631300
C     1.924300    2.671000   19.472100
H     2.217500    1.987100   20.047600
C     2.580700    2.882700   18.263600
H     3.306900    2.338100   18.019000
C     2.874400    8.660700   17.190700
C     3.188400    9.957100   16.734400
H     4.032900   10.125800   16.362400
C     2.275200   10.972700   16.826900
H     2.485300   11.819700   16.477500
C     1.079700   10.772300   17.412700
H     0.470900   11.483400   17.503100
C     0.758500    9.523400   17.879300
H    -0.080900    9.386400   18.282100
C     1.636600    8.464800   17.772400
H     1.394300    7.615600   18.095100
C     4.346700    6.376900   18.475300
C     3.656400    6.639600   19.648900
H     2.980200    7.289500   19.700300
C     4.064700    5.818700   20.822500
H     3.642200    5.927400   21.654900
C     5.057300    4.915100   20.664200
H     5.296700    4.402200   21.416500
C     5.711400    4.695500   19.544100
H     6.400300    4.055800   19.507100
C     5.367000    5.421300   18.434200
H     5.826200    5.272900   17.628500
F     1.321500    5.474500    7.445800
F     1.091500    4.993300    9.612100
F     3.027400    4.689800    8.589200
F     2.268000    6.669000    9.047500
B     1.941700    5.393000    8.685800
F     7.375700    1.245500   18.582200
F     8.752700    2.494400   19.805100
F     9.534500    1.192300   18.195800
F     8.423700    3.007300   17.770300
B     8.570900    1.948600   18.621200

QM/MM links (counting starts at zero)
  1   89
  1  100
  2   59
  2   78
  7   48
  9   37
 35   70
 36   74
