128
QM: 37 at, MM: 91 at, Links: 12
Fe    8.757500    0.000000    0.000000
N     8.404700    0.093500    2.225400
N     7.354200    0.708700    2.720600
N     7.554200    0.789700    4.046300
C     9.273300   -0.222400    3.219100
C     8.732600    0.215600    4.399400
H     9.093700    0.136600    5.252700
N    10.982900    0.352800   -0.093500
N    11.478000    1.403300   -0.708700
N    12.803700    1.203300   -0.789700
C    11.976500   -0.515800    0.222400
C    13.156800    0.024900   -0.215600
H    14.010200   -0.336300   -0.136600
N     8.663900   -2.225400   -0.352800
N     8.048800   -2.720600   -1.403300
N     7.967700   -4.046300   -1.203300
C     8.979900   -3.219100    0.515800
C     8.541800   -4.399400   -0.024900
H     8.620800   -5.252700    0.336300
N     9.110200   -0.093500   -2.225400
N    10.160700   -0.708700   -2.720600
N     9.960700   -0.789700   -4.046300
C     8.241600    0.222400   -3.219100
C     8.782300   -0.215600   -4.399400
H     8.421200   -0.136600   -5.252700
N     6.532000   -0.352800    0.093500
N     6.036900   -1.403300    0.708700
N     4.711200   -1.203300    0.789700
C     5.538400    0.515800   -0.222400
C     4.358100   -0.024900    0.215600
H     3.504700    0.336300    0.136600
N     8.851000    2.225400    0.352800
N     9.466100    2.720600    1.403300
N     9.547200    4.046300    1.203300
C     8.535000    3.219100   -0.515800
C     8.973100    4.399400    0.024900
H     8.894100    5.252700   -0.336300
N    10.402100   -1.644600    1.644600
C    10.568700   -0.893100    2.886500
H    11.267300   -0.229400    2.779600
H    10.824200   -1.492300    3.604600
C     6.566500    1.414200    4.887000
C     5.256900    1.487500    4.452800
H     5.009300    1.129700    3.630800
C     4.316900    2.106900    5.269000
H     3.432900    2.171800    4.986500
C     4.684000    2.626500    6.494700
H     4.049400    3.042300    7.032200
C     5.985900    2.528500    6.918900
H     6.226500    2.868900    7.750300
C     6.944800    1.925200    6.116700
H     7.827400    1.865300    6.401700
C    11.643900   -1.811200    0.893100
H    11.537100   -2.509900    0.229400
H    12.362000   -2.066800    1.492300
C    13.644500    2.190900   -1.414200
C    13.210300    3.500500   -1.487500
H    12.388300    3.748200   -1.129700
C    14.026500    4.440600   -2.106900
H    13.743900    5.324500   -2.171800
C    15.252200    4.073400   -2.626500
H    15.789700    4.708000   -3.042300
C    15.676400    2.771600   -2.528500
H    16.507800    2.530900   -2.868900
C    14.874200    1.812600   -1.925200
H    15.159100    0.930000   -1.865300
C     9.650500   -2.886500    1.811200
H     8.986900   -2.779600    2.509900
H    10.249700   -3.604600    2.066800
C     7.343300   -4.887000   -2.190900
C     7.269900   -4.452800   -3.500500
H     7.627700   -3.630800   -3.748200
C     6.650600   -5.269000   -4.440600
H     6.585600   -4.986500   -5.324500
C     6.130900   -6.494700   -4.073400
H     5.715100   -7.032200   -4.708000
C     6.229000   -6.918900   -2.771600
H     5.888500   -7.750300   -2.530900
C     6.832200   -6.116700   -1.812600
H     6.892100   -6.401700   -0.930000
N     7.112800    1.644600   -1.644600
C     6.946200    0.893100   -2.886500
H     6.247600    0.229400   -2.779600
H     6.690700    1.492300   -3.604600
C    10.948400   -1.414200   -4.887000
C    12.258000   -1.487500   -4.452800
H    12.505600   -1.129700   -3.630800
C    13.198000   -2.106900   -5.269000
H    14.082000   -2.171800   -4.986500
C    12.830900   -2.626500   -6.494700
H    13.465500   -3.042300   -7.032200
C    11.529000   -2.528500   -6.918900
H    11.288400   -2.868900   -7.750300
C    10.570100   -1.925200   -6.116700
H     9.687500   -1.865300   -6.401700
C     5.871000    1.811200   -0.893100
H     5.977800    2.509900   -0.229400
H     5.152900    2.066800   -1.492300
C     3.870400   -2.190900    1.414200
C     4.304600   -3.500500    1.487500
H     5.126600   -3.748200    1.129700
C     3.488400   -4.440600    2.106900
H     3.771000   -5.324500    2.171800
C     2.262700   -4.073400    2.626500
H     1.725200   -4.708000    3.042300
C     1.838500   -2.771600    2.528500
H     1.007100   -2.530900    2.868900
C     2.640700   -1.812600    1.925200
H     2.355800   -0.930000    1.865300
C     7.864400    2.886500   -1.811200
H     8.528000    2.779600   -2.509900
H     7.265200    3.604600   -2.066800
C    10.171600    4.887000    2.190900
C    10.245000    4.452800    3.500500
H     9.887200    3.630800    3.748200
C    10.864300    5.269000    4.440600
H    10.929300    4.986500    5.324500
C    11.384000    6.494700    4.073400
H    11.799800    7.032200    4.708000
C    11.285900    6.918900    2.771600
H    11.626400    7.750300    2.530900
C    10.682700    6.116700    1.812600
H    10.622800    6.401700    0.930000
B     1.983400    1.983400    1.983400
F     1.173300    1.173300    1.173300
F     1.183100    2.915500    2.618300
F     2.618300    1.183100    2.915500
F     2.915500    2.618300    1.183100

QM/MM links (counting starts at zero)
  3   41
  4   38
  9   55
 10   52
 15   69
 16   66
 21   84
 22   81
 27   98
 28   95
 33  112
 34  109
