105
QM: 55 at, MM: 50 at, Links: 4
Fe   10.525000   13.033500    0.000000
S    13.740000    9.820300    1.456000
S     7.074000    2.405100    6.260400
S     6.479200    8.581700    3.207800
N    12.142800   11.728400    0.238600
N     9.193600   11.526000    1.036100
N     8.187300    0.851500   10.393600
C    12.806700   10.939500    0.758000
C     8.029900   11.877900    1.590800
H     7.765800   12.767300    1.523100
C     7.200700   11.009800    2.253500
H     6.406700   11.315500    2.628500
C     7.554400    9.675200    2.360800
C     8.756300    9.293800    1.789600
H     9.036400    8.407700    1.832900
C     9.530100   10.234800    1.159000
H    10.339300    9.958700    0.793300
C     7.462000    1.861200    7.874300
C     8.006300    0.600400    8.023300
H     8.147000    0.062100    7.277900
C     8.337100    0.145100    9.271100
H     8.688700   -0.713300    9.341600
C     7.653900    2.063600   10.236600
H     7.528500    2.582400   10.998400
C     7.275500    2.599700    9.033100
H     6.898600    3.449300    8.994100
S     7.310000   16.246700   -1.456000
S    13.976000   23.661900   -6.260400
S    14.570800   17.485300   -3.207800
N     8.907200   14.338600   -0.238600
N    11.856400   14.541000   -1.036100
N    12.862700   25.215500  -10.393600
C     8.243300   15.127500   -0.758000
C    13.020100   14.189100   -1.590800
H    13.284200   13.299700   -1.523100
C    13.849300   15.057200   -2.253500
H    14.643300   14.751500   -2.628500
C    13.495600   16.391800   -2.360800
C    12.293700   16.773200   -1.789600
H    12.013600   17.659300   -1.832900
C    11.519900   15.832200   -1.159000
H    10.710700   16.108300   -0.793300
C    13.588000   24.205800   -7.874300
C    13.043700   25.466600   -8.023300
H    12.903000   26.004900   -7.277900
C    12.712900   25.921900   -9.271100
H    12.361300   26.780300   -9.341600
C    13.396100   24.003400  -10.236600
H    13.521500   23.484600  -10.998400
C    13.774500   23.467300   -9.033100
H    14.151400   22.617700   -8.994100
Fe    8.692500    0.000000   12.438100
Fe   12.357500   26.067000  -12.438100
N    11.030200   13.885000    2.044600
N    10.019800   12.182000   -2.044600
C     7.068500    6.949500    2.672700
H     7.010900    6.873200    1.707500
H     7.993500    6.825100    2.936200
C     6.199500    5.909400    3.327200
C     5.058200    5.457600    2.665500
C     4.276900    4.502600    3.282400
H     3.517100    4.194700    2.842800
C     4.577100    3.987400    4.523500
C     5.710100    4.450500    5.191900
C     6.534900    5.408900    4.593900
C     7.773200    5.895500    5.312100
H     7.567100    6.051400    6.236500
H     8.076700    6.712600    4.909500
H     8.463300    5.231000    5.245800
C     4.671700    5.958000    1.295300
H     3.867600    5.518600    1.009200
H     5.378300    5.769000    0.673800
H     4.522400    6.906000    1.331300
C     3.679000    2.924700    5.118500
H     3.237500    3.276500    5.894800
H     4.207600    2.162800    5.368900
H     3.023400    2.659400    4.469600
C     6.052200    3.879600    6.548900
H     5.243000    3.641000    7.027600
H     6.541500    4.531500    7.075000
C    13.981500   19.117500   -2.672700
H    14.039100   19.193800   -1.707500
H    13.056500   19.241900   -2.936200
C    14.850500   20.157600   -3.327200
C    15.991800   20.609400   -2.665500
C    16.773100   21.564400   -3.282400
H    17.532900   21.872300   -2.842800
C    16.472900   22.079600   -4.523500
C    15.339900   21.616500   -5.191900
C    14.515100   20.658100   -4.593900
C    13.276800   20.171500   -5.312100
H    13.482900   20.015600   -6.236500
H    12.973300   19.354400   -4.909500
H    12.586700   20.836000   -5.245800
C    16.378300   20.109000   -1.295300
H    17.182400   20.548400   -1.009200
H    15.671700   20.298000   -0.673800
H    16.527600   19.161000   -1.331300
C    17.371000   23.142300   -5.118500
H    17.812500   22.790500   -5.894800
H    16.842400   23.904200   -5.368900
H    18.026600   23.407600   -4.469600
C    14.997800   22.187400   -6.548900
H    15.807000   22.426000   -7.027600
H    14.508500   21.535500   -7.075000

QM/MM links (counting starts at zero)
  2   77
  3   55
 27  102
 28   80
