148
QM: 124 at, MM: 24 at, Links: 0
Fe   21.226500    2.899200    5.068000
N    19.365400    3.008600    5.668900
C    18.743500    2.260400    6.585000
H    19.239600    1.566800    7.004000
C    17.423900    2.430300    6.962600
H    17.035100    1.874000    7.628400
C    16.671100    3.433900    6.347400
H    15.764200    3.580700    6.592500
C    17.264200    4.195100    5.391000
H    16.763100    4.882900    4.968700
C    18.610900    3.987200    5.011100
C    19.310800    4.677200    3.971700
C    18.755100    5.664700    3.114600
H    17.863000    5.963200    3.249600
C    19.495800    6.180800    2.103400
H    19.114900    6.830200    1.524500
C    20.820500    5.761600    1.907800
H    21.342700    6.106600    1.194000
C    21.339500    4.830500    2.786200
H    22.244900    4.562000    2.671900
N    20.636700    4.280600    3.795500
N    21.689000    1.414300    6.268700
C    22.206300    1.481400    7.506700
H    22.361100    2.345000    7.873700
C    22.525800    0.394200    8.279700
H    22.888300    0.506900    9.150800
C    22.301400   -0.896000    7.749400
H    22.506100   -1.670900    8.258800
C    21.787100   -1.004400    6.503500
H    21.621500   -1.867100    6.142400
C    21.487700    0.144200    5.723600
N    20.764000    1.414300    3.867300
C    20.246700    1.481400    2.629300
H    20.091900    2.345000    2.262400
C    19.927200    0.394200    1.856300
H    19.564700    0.506900    0.985200
C    20.151600   -0.896000    2.386600
H    19.946900   -1.670900    1.877200
C    20.665900   -1.004400    3.632600
H    20.831500   -1.867100    3.993600
C    20.965300    0.144200    4.412400
N    23.087600    3.008600    4.467200
C    23.709500    2.260400    3.551100
H    23.213400    1.566800    3.132000
C    25.029100    2.430300    3.173400
H    25.417900    1.874000    2.507700
C    25.781900    3.433900    3.788600
H    26.688800    3.580700    3.543600
C    25.188800    4.195100    4.745100
H    25.689900    4.882900    5.167400
C    23.842100    3.987200    5.125000
C    23.142200    4.677200    6.164300
C    23.697900    5.664700    7.021400
H    24.590000    5.963200    6.886400
C    22.957200    6.180800    8.032600
H    23.338100    6.830200    8.611600
C    21.632500    5.761600    8.228200
H    21.110300    6.106600    8.942000
C    21.113500    4.830500    7.349800
H    20.208100    4.562000    7.464200
N    21.816300    4.280600    6.340500
K    13.145100    3.338500    3.311000
N    13.399600    6.009600    1.942700
C    12.802500    7.045300    2.800400
H    11.816900    6.965000    2.757000
H    13.046200    7.936200    2.440800
C    13.232700    6.971000    4.243600
H    14.217100    7.041800    4.305800
H    12.835100    7.721100    4.751800
O    12.799700    5.727700    4.794500
C    13.213600    5.586000    6.157400
H    12.995200    6.407000    6.665500
H    14.192400    5.442700    6.201200
C    12.498300    4.416100    6.744700
H    12.684400    4.360600    7.715500
H    11.522200    4.521000    6.620900
O    12.944800    3.223400    6.094200
C    12.324200    2.061900    6.642300
H    11.367200    2.039500    6.391800
H    12.387700    2.078800    7.630400
C    13.029200    0.839700    6.098400
H    13.997400    0.916500    6.288400
H    12.692200    0.037500    6.572200
C    14.836800    6.282400    1.734500
H    15.238900    6.548600    2.598900
H    14.929700    7.047000    1.112900
C    15.607700    5.108200    1.179200
H    15.179900    4.787300    0.346700
H    16.534100    5.384600    0.965000
O    15.624100    4.068300    2.147600
C    16.420900    2.959400    1.715000
H    17.335000    3.273500    1.500100
H    16.027200    2.570300    0.894000
C    16.490400    1.925200    2.765100
H    17.078800    1.184400    2.469100
H    16.870800    2.310900    3.592200
O    15.169300    1.424400    3.022000
C    15.229100    0.361800    3.963200
H    15.535100    0.708300    4.838900
H    15.877100   -0.320900    3.657100
C    13.872300   -0.257700    4.108900
H    13.576800   -0.583700    3.221200
H    13.946000   -1.042800    4.707200
C    12.697400    5.968300    0.639800
H    13.249200    5.463100   -0.008100
H    12.602100    6.891700    0.298000
C    11.329600    5.330000    0.720900
H    10.773900    5.807900    1.388600
H    10.878400    5.389800   -0.158100
O    11.478100    3.966700    1.099400
C    10.219900    3.305900    1.106900
H     9.765100    3.440700    0.239200
H     9.646000    3.684800    1.820400
C    10.427300    1.844900    1.348100
H     9.568600    1.361900    1.240700
H    11.069900    1.483100    0.687200
O    10.927700    1.644900    2.659500
C    11.047100    0.257700    2.967800
H    11.702400   -0.165500    2.357600
H    10.172800   -0.189400    2.842100
C    11.502100    0.093900    4.394600
H    10.851500    0.539300    4.993000
H    11.508800   -0.870400    4.620000
N    12.842000    0.651300    4.647600
C    11.933300    2.130000   10.930300
H    11.130200    2.314300   11.403000
C    12.250900    0.817500   10.647700
H    11.664400    0.116100   10.904300
C    13.445000    0.529100    9.978100
H    13.663100   -0.370400    9.769100
C    14.307300    1.545100    9.617900
H    15.123000    1.326100    9.183200
C    14.008000    2.902600    9.877800
C    14.855700    3.962800    9.513300
H    15.688500    3.758200    9.104200
C    14.526800    5.318600    9.728600
C    15.350200    6.403500    9.341800
H    16.153300    6.219200    8.869000
C    15.032600    7.716000    9.624400
H    15.619100    8.417400    9.367700
C    13.838500    8.004400   10.294000
H    13.620400    8.903900   10.503000
C    12.976200    6.988400   10.654200
H    12.160500    7.207400   11.088800
C    13.275500    5.630900   10.394300
C    12.427800    4.570700   10.758800
H    11.595000    4.775300   11.167900
C    12.756700    3.214900   10.543500

QM/MM links (counting starts at zero)
