105
QM: 51 at, MM: 54 at, Links: 0
Fe    5.852600    4.166900    9.677400
O     7.678200    4.383900    9.221200
O     5.010400    5.181200    2.481900
H     4.361500    4.778900    2.783200
O     5.745300    6.016000   10.093000
O     6.569600    3.620600   16.883600
H     6.274900    2.930900   16.554100
N     3.938100    3.963800    9.602000
N     2.903400    3.619300   10.367300
N     1.859500    3.525700    9.550700
N     2.193500    3.792300    8.268700
N     4.365200    4.318800    7.286700
N     5.556700    4.397600    7.807200
N     6.001500    2.263900    9.784000
N     5.818600    1.172900    9.041800
N     6.053500    0.136500    9.834000
N     6.374400    0.520000   11.107000
N     6.465200    2.789500   12.049300
N     6.211000    3.951300   11.533900
C     3.498100    4.046800    8.329000
C     6.697700    4.691800    7.093200
C     7.809500    4.689800    7.961000
C     9.086800    5.061400    7.441900
H     9.835900    5.052600    7.993100
C     9.199200    5.422300    6.145800
H    10.030400    5.693300    5.829100
C     8.102000    5.406000    5.249700
C     8.256600    5.769500    3.893400
H     9.087100    6.067700    3.602300
C     7.231300    5.700700    2.993400
H     7.360600    5.949800    2.107600
C     5.981200    5.246600    3.429300
C     5.769200    4.876600    4.748400
H     4.936800    4.557700    5.013800
C     6.812600    4.984300    5.688100
C     6.301400    1.851500   11.033900
C     6.249200    5.134300   12.230000
C     6.053600    6.225700   11.341600
C     6.216500    7.560300   11.824900
H     6.112700    8.286400   11.253200
C     6.529900    7.752400   13.144100
H     6.666300    8.621500   13.445300
C     6.653900    6.678800   14.076100
C     6.911900    6.910900   15.432400
H     7.083100    7.778600   15.719500
C     6.916400    5.885100   16.352800
H     7.090400    6.062900   17.248900
C     6.654100    4.572300   15.929800
C     6.477300    4.298500   14.579900
H     6.358500    3.420300   14.301700
C     6.476800    5.316300   13.642800
P     5.960500    2.543200   -3.411800
C     6.838800    1.163500   -4.181800
C     7.013200   -0.018600   -3.472900
H     6.716000   -0.089800   -2.594700
C     7.640000   -1.094900   -4.093300
H     7.775200   -1.886500   -3.625400
C     8.065500   -0.986900   -5.418900
H     8.455800   -1.717500   -5.840700
C     7.909300    0.205400   -6.107300
H     8.217200    0.283900   -6.981600
C     7.290000    1.289600   -5.484300
H     7.180100    2.091400   -5.940700
C     4.203200    2.439900   -3.812600
C     3.677800    1.309700   -4.390800
H     4.229200    0.587500   -4.588200
C     2.320100    1.250800   -4.677900
H     1.961000    0.485700   -5.066400
C     1.501800    2.326500   -4.390800
H     0.595000    2.288100   -4.594600
C     2.029100    3.460900   -3.795900
H     1.470700    4.171800   -3.579300
C     3.384500    3.540200   -3.525400
H     3.746100    4.312700   -3.156200
C     6.204600    2.463600   -1.646100
C     5.138600    2.595600   -0.760200
H     4.268700    2.658900   -1.083300
C     5.373300    2.632700    0.598700
H     4.662600    2.714700    1.192200
C     6.668900    2.547700    1.075600
H     6.823400    2.603100    1.990900
C     7.733600    2.381000    0.217900
H     8.597300    2.299000    0.553800
C     7.513600    2.336800   -1.139700
H     8.228700    2.225000   -1.724300
C     6.596200    4.091000   -4.089500
C     7.583000    4.795100   -3.457500
H     7.890100    4.526500   -2.622900
C     8.129000    5.930600   -4.083100
H     8.800500    6.420100   -3.665200
C     7.658800    6.309400   -5.318900
H     8.018500    7.060600   -5.731700
C     6.656500    5.594200   -5.966300
H     6.355900    5.856000   -6.806000
C     6.114500    4.483800   -5.342000
H     5.432200    4.002500   -5.752200
O     3.186700    2.839600   13.347900
H     3.801400    2.286000   13.546600
H     3.203100    2.976100   12.508200
O     9.101200    6.037600   -1.008900
H     8.649700    6.605800   -0.567900
H     9.711400    5.713400   -0.511500
O     6.345100    5.929500   -0.380700
H     5.604500    5.932400    0.035900
H     6.467600    6.741800   -0.600000

QM/MM links (counting starts at zero)
