133
QM: 24 at, MM: 109 at, Links: 5
Fe    5.614900    3.551300    3.874300
Br    5.692000    1.200700    3.119400
P     3.561500    3.599900    2.975300
P     7.125900    4.320800    2.385200
N     4.653800    2.921700    5.473700
N     7.199100    3.155400    4.966800
N     5.527900    6.283500    5.027200
C     2.624100    2.635000    4.248600
H     1.754000    3.070900    4.428200
H     2.450300    1.718100    3.916700
C     3.429100    2.579400    5.495200
H     3.031600    2.289200    6.306700
C     5.506900    2.873100    6.675800
H     5.143300    2.224800    7.331200
H     5.549300    3.764300    7.103800
C     6.887500    2.440300    6.214200
H     7.559800    2.656500    6.907200
H     6.902100    1.462600    6.057800
C     8.400200    3.396800    4.625400
H     9.110700    3.180200    5.217700
C     8.699200    4.012300    3.313800
H     9.283200    3.409800    2.789300
H     9.180400    4.866800    3.448200
C     5.538200    5.227100    4.536500
S     6.580600    7.706600    7.002500
O     6.490000    9.072100    7.431600
O     6.193500    6.652000    7.891000
C     5.568700    7.606200    5.509800
H     4.649800    7.913800    5.712300
H     5.945600    8.201500    4.813700
C     8.214700    7.361500    6.456600
C     8.891700    8.319500    5.722100
H     8.459900    9.123600    5.460400
C    10.208500    8.083100    5.375900
H    10.673100    8.726200    4.855200
C    10.869100    6.924500    5.774300
C    10.150500    5.954900    6.453700
H    10.572200    5.136100    6.683000
C     8.824600    6.163200    6.803900
H     8.340400    5.494800    7.274300
C    12.335500    6.748000    5.488000
H    12.655600    5.926100    5.916500
H    12.831800    7.514800    5.841300
H    12.473300    6.686100    4.518800
C     2.668300    5.191100    2.934900
C     2.291800    5.798400    1.738100
H     2.428300    5.346800    0.913900
C     1.717000    7.058700    1.747500
H     1.453600    7.462100    0.927700
C     1.525500    7.735300    2.934600
H     1.156100    8.611400    2.929100
C     1.872800    7.134500    4.135000
H     1.722000    7.589600    4.955000
C     2.437100    5.875300    4.137600
H     2.671900    5.467300    4.962700
C     7.035100    6.131900    2.138200
C     8.090100    7.008800    2.352600
H     8.963300    6.670800    2.512800
C     7.865300    8.387400    2.332200
H     8.588200    8.982500    2.491300
C     6.619600    8.891400    2.086100
H     6.474800    9.830000    2.101200
C     5.566500    8.034400    1.814700
H     4.703900    8.377500    1.612800
C     5.788300    6.666500    1.843500
H     5.066900    6.078100    1.655800
C     3.083300    2.846500    1.387100
C     4.022500    2.628500    0.391400
H     4.936400    2.830100    0.552900
C     3.636100    2.115600   -0.843200
H     4.282700    1.981600   -1.525200
C     2.314000    1.802400   -1.075200
H     2.049700    1.459500   -1.921500
C     1.369500    1.986600   -0.075300
H     0.463200    1.746900   -0.228900
C     1.746900    2.522400    1.151500
H     1.095700    2.666800    1.827800
C     7.478600    3.652600    0.718700
C     7.348700    4.427200   -0.429900
H     7.118900    5.345300   -0.357900
C     7.555800    3.861700   -1.681900
H     7.468800    4.399200   -2.460600
C     7.885200    2.524700   -1.807800
H     8.014900    2.143100   -2.668000
C     8.024800    1.755700   -0.682000
H     8.258300    0.839000   -0.766400
C     7.828000    2.305600    0.582100
H     7.930300    1.762400    1.354700
C    13.645700   -0.330600   -4.432800
C    12.875000    0.018800   -5.563300
H    13.215300   -0.181500   -6.428000
C    11.647600    0.640900   -5.458800
H    11.159700    0.861900   -6.245200
C    11.124600    0.939100   -4.225400
H    10.278000    1.363100   -4.157900
C    11.838600    0.621000   -3.075000
H    11.481900    0.824400   -2.217900
C    13.094600   -0.007500   -3.191700
H    13.579800   -0.217800   -2.402200
C    15.338500   -1.756800   -6.030500
C    14.365600   -2.610100   -6.593300
H    13.539200   -2.717800   -6.136200
C    14.560700   -3.303500   -7.793500
H    13.883000   -3.880800   -8.119100
C    15.730500   -3.154000   -8.503700
H    15.863500   -3.615500   -9.323300
C    16.700800   -2.322900   -8.001600
H    17.515100   -2.204000   -8.477000
C    16.493300   -1.651700   -6.792600
H    17.187000   -1.088000   -6.472600
C    15.309900   -2.137800   -3.362800
C    16.256200    0.190600   -4.498700
C    17.571300    0.022000   -4.052500
H    17.808300   -0.796700   -3.632600
C    15.759900   -1.818700   -2.072800
H    16.039900   -0.927000   -1.900000
C    18.547900    1.001900   -4.196400
H    19.427200    0.851600   -3.869100
C    15.815400   -2.744100   -1.035100
H    16.137000   -2.480300   -0.179700
C    15.405000   -4.046800   -1.248100
H    15.434800   -4.685500   -0.545300
C    18.233100    2.195300   -4.819100
H    18.897600    2.865100   -4.933500
C    14.952500   -4.403300   -2.498600
H    14.666400   -5.293500   -2.657200
C    16.950000    2.407200   -5.272200
H    16.727800    3.222700   -5.706100
C    14.910900   -3.472700   -3.532700
H    14.600500   -3.751400   -4.386700
C    15.981500    1.427900   -5.094800
H    15.096000    1.605200   -5.389700
B    15.140300   -1.015800   -4.561000

QM/MM links (counting starts at zero)
  2   44
  2   66
  3   55
  3   77
  6   27
