192
QM: 21 at, MM: 171 at, Links: 8
Fe   -2.256600    6.261200   14.966200
N    -0.775600    7.201400   16.047000
H    -0.065400    7.599300   15.651100
H    -1.166000    7.823500   16.555300
H    -0.470700    6.655600   16.669300
O    -2.437600    5.181200   16.764900
O    -3.474400    7.068000   16.453500
C    -3.152700    6.119000   17.226900
B    -2.403000    5.575500   11.448300
C    -2.715900    7.188400   11.665600
H    -3.656600    7.350300   11.489800
H    -2.202800    7.696200   11.017600
P    -2.314500    7.800500   13.349300
C    -3.564800    4.690200   12.201600
H    -3.291700    3.758200   12.199600
H    -4.383900    4.754400   11.685700
P    -3.924800    5.183700   13.925500
C    -0.893400    5.211300   12.041000
H    -0.276500    5.902900   11.754800
H    -0.600900    4.378100   11.640700
P    -0.776800    5.050300   13.846300
C    -3.594800    6.140100   18.658600
H    -3.468800    7.020900   19.019000
H    -3.075300    5.509900   19.163500
H    -4.524100    5.902900   18.710600
C    -2.330900    5.181200    9.861200
C    -2.935000    4.028300    9.324800
H    -3.484700    3.517400    9.874100
C    -2.743400    3.622600    8.009900
H    -3.156800    2.850400    7.697800
C    -1.939700    4.364800    7.163700
H    -1.810000    4.098500    6.282900
C    -1.329400    5.513800    7.647300
H    -0.787600    6.021900    7.089200
C    -1.528600    5.902600    8.964400
H    -1.111800    6.677800    9.267000
C    -3.512800    9.208000   13.575600
H    -3.213200    9.935000   13.009100
H    -4.370700    8.916600   13.229100
C    -3.761300    9.791700   14.977200
H    -4.052400    9.057800   15.557900
C    -4.896800   10.812000   14.913100
H    -5.689500   10.383400   14.554100
H    -4.646600   11.529100   14.308400
C    -5.223500   11.404000   16.285100
H    -5.896600   12.096400   16.181100
H    -5.593800   10.709900   16.850800
C    -4.000200   11.997000   16.960200
H    -4.230600   12.279000   17.859400
H    -3.706100   12.777200   16.466900
C    -2.866800   10.976400   17.021400
H    -3.125100   10.242200   17.599200
H    -2.077200   11.393500   17.401700
C    -2.537500   10.437300   15.624600
H    -2.223500   11.163800   15.064900
H    -1.826500    9.782800   15.692800
C    -0.715600    8.708500   13.090000
H    -0.520500    9.198900   13.903700
H    -0.016400    8.044900   12.981800
C    -0.609100    9.704500   11.905400
H    -1.463000    9.691500   11.425500
C     0.482900    9.277800   10.929900
H     0.290100    8.385300   10.604800
H     1.333000    9.248700   11.396600
C     0.596000   10.230900    9.739800
H     1.326100    9.948900    9.167400
H    -0.222900   10.200700    9.220400
C     0.844600   11.661400   10.212000
H     1.712300   11.714500   10.641800
H     0.851300   12.256900    9.446900
C    -0.233200   12.103300   11.191200
H    -1.084700   12.149000   10.730100
H    -0.022300   12.990300   11.520300
C    -0.349700   11.143800   12.370200
H    -1.075500   11.429400   12.946500
H     0.470300   11.169300   12.887000
C    -4.440200    3.606800   14.746200
H    -3.701300    2.986000   14.661700
H    -4.542400    3.796900   15.692800
C    -5.711700    2.866200   14.291200
H    -6.365300    3.536800   14.000000
C    -5.467000    1.903200   13.128300
H    -5.130100    2.399400   12.366700
H    -4.790600    1.256400   13.384900
C    -6.742600    1.163400   12.722100
H    -7.384700    1.798800   12.369900
H    -6.534800    0.528600   12.019800
C    -7.358200    0.429200   13.897200
H    -6.770100   -0.293300   14.168700
H    -8.203400    0.038700   13.624200
C    -7.591100    1.358800   15.077700
H    -7.907100    0.841300   15.835800
H    -8.277900    2.003600   14.848000
C    -6.312600    2.096900   15.467300
H    -5.662200    1.455700   15.795600
H    -6.510100    2.717600   16.187500
C    -5.517400    6.108500   13.682700
H    -5.355300    6.782900   13.004300
H    -6.157700    5.482300   13.309400
C    -6.202300    6.806500   14.862200
H    -5.551500    7.419500   15.264000
C    -6.670100    5.845100   15.953500
H    -5.909100    5.346700   16.290300
H    -7.297000    5.211100   15.574000
C    -7.340000    6.585600   17.109800
H    -7.649500    5.941700   17.767900
H    -6.692400    7.164900   17.539800
C    -8.520200    7.419200   16.623700
H    -9.212900    6.832800   16.283900
H    -8.889400    7.920400   17.366300
C    -8.085500    8.381100   15.526600
H    -7.477300    9.038400   15.898400
H    -8.862100    8.850200   15.185300
C    -7.394900    7.646700   14.378300
H    -7.084500    8.294000   13.727000
H    -8.036500    7.065200   13.939000
C     1.021100    5.387300   14.186800
H     1.177700    6.337400   14.080300
H     1.202900    5.166800   15.113000
C     2.034100    4.623300   13.295800
H     1.524000    4.176000   12.589900
C     3.021200    5.576900   12.614300
H     2.525900    6.229500   12.095200
H     3.523700    6.055100   13.293400
C     3.994000    4.836300   11.695700
H     3.502500    4.444500   10.956500
H     4.633500    5.468400   11.329200
C     4.740800    3.738500   12.444100
H     5.297800    3.243400   11.822200
H     5.317900    4.137300   13.113500
C     3.759800    2.787900   13.118100
H     4.250800    2.125400   13.629000
H     3.242600    2.321900   12.442200
C     2.816100    3.548100   14.045300
H     3.329600    3.962900   14.756500
H     2.194400    2.925200   14.451300
C    -0.873200    3.208800   14.072900
H    -1.555400    2.880900   13.466800
H    -0.028100    2.839400   13.773600
C    -1.167600    2.612200   15.453500
H    -1.953700    3.077400   15.808500
C    -0.049200    2.757700   16.490600
H     0.750600    2.313600   16.168200
H     0.157400    3.697300   16.613100
C    -0.467000    2.147800   17.832100
H     0.271400    2.213900   18.458500
H    -1.211800    2.651200   18.193500
C    -0.872500    0.680200   17.686900
H    -0.095900    0.155000   17.437000
H    -1.196300    0.351500   18.540400
C    -1.957900    0.507800   16.634000
H    -2.776300    0.927100   16.943900
H    -2.134800   -0.437300   16.505500
C    -1.543000    1.130800   15.304500
H    -2.273800    1.048900   14.671400
H    -0.783500    0.644800   14.947600
C    10.877400   -0.053400    6.711400
H    10.613700   -0.091300    5.820400
C     9.921900    0.018500    7.708400
H     9.017200    0.030400    7.490700
C    10.319200    0.071100    9.032000
H     9.682500    0.119000    9.707000
C    11.662500    0.053400    9.349200
H    11.926200    0.091300   10.240200
C    12.618000   -0.018500    8.352200
H    13.522700   -0.030400    8.569900
C    12.220700   -0.071100    7.028600
H    12.857400   -0.119000    6.353600
C     0.484500    2.486300    9.655300
H     0.118300    3.224000    9.222000
C     1.727600    2.018800    9.289800
H     2.208700    2.451900    8.622900
C     2.264900    0.900800    9.914900
H     3.099500    0.578400    9.658900
C     1.553300    0.269800   10.918300
H     1.907900   -0.478800   11.338800
C     0.314600    0.753600   11.297000
H    -0.161000    0.334900   11.978000
C    -0.215900    1.859400   10.663600
H    -1.049400    2.183500   10.918000
C    -4.322900    2.779300   19.284100
H    -3.890000    3.022000   18.497000
C    -3.615200    2.204800   20.312000
H    -2.700500    2.061700   20.223500
C    -4.258200    1.839200   21.474300
H    -3.775600    1.447400   22.166900
C    -5.607800    2.047100   21.618700
H    -6.037800    1.804400   22.406200
C    -6.317600    2.617100   20.593100
H    -7.232900    2.750800   20.682900
C    -5.676800    2.993000   19.425100
H    -6.159400    3.390100   18.736300

QM/MM links (counting starts at zero)
  7   21
  8   25
 12   36
 12   56
 16   76
 16   96
 20  116
 20  136
