105
QM: 51 at, MM: 54 at, Links: 0
Fe    2.942900    9.246500    5.389400
N     2.299900    8.339900    3.567600
N     1.372100    7.855600    5.944500
N     3.868400   10.223600    7.017700
N     4.187200   10.124600    3.798100
N     1.805200   11.104800    5.696200
N     0.727700    7.463000    7.053300
H     0.892800    7.766300    7.840900
N     4.579900    7.925200    5.989600
N     0.809800   11.798800    5.111700
H     0.313500   11.489800    4.481700
N     5.179000   11.018500    3.672100
H     5.520100   11.461000    4.325000
C     1.335300    7.405500    3.590700
C     2.902000    8.654500    2.405900
N     5.202800    6.833700    5.529200
H     4.925400    6.357700    4.868100
C     3.942200    9.676500    2.565200
C     0.813600    7.161100    4.938500
C     2.325000   11.942800    6.609000
C     4.889000    9.631900    7.641000
C     3.448900   11.433800    7.401900
C     0.917700    6.756000    2.440900
H     0.243100    6.117100    2.470500
C     2.541100    8.035800    1.219800
H     2.967400    8.253800    0.422800
C    -0.202400    6.541500    6.782700
H    -0.760200    6.125400    7.398700
C    -0.185900    6.321000    5.428500
H    -0.723100    5.738300    4.943200
C     5.302700    8.368800    7.027400
C     1.533400    7.086200    1.246400
H     1.269200    6.667900    0.459300
C     5.566000   11.131600    2.399700
H     6.241800   11.685900    2.082000
C     4.799700   10.293000    1.650600
H     4.837100   10.159600    0.731900
C     4.063300   12.116800    8.448300
H     3.786600   12.969400    8.695100
C     5.522000   10.241900    8.720900
H     6.216600    9.816800    9.171600
C     5.094900   11.486600    9.105100
H     5.508200   11.912400    9.822000
C     1.654000   13.160400    6.593800
H     1.822400   13.907300    7.119700
C     0.687200   13.018800    5.627900
H     0.060600   13.659600    5.381100
C     6.309800    6.581400    6.231100
H     6.904000    5.878600    6.091500
C     6.409800    7.555400    7.201200
H     7.080800    7.646900    7.838700
N     4.666000    9.388000   12.430600
N     2.014200    8.361800    9.345700
N     4.895500   10.601800   12.538300
C     3.728100    9.085400   11.384400
N     7.639500   11.568600   15.585100
C     1.875400    9.519200    9.974400
H     1.179300   10.080200    9.716800
C     2.717300    9.938500   11.002500
H     2.600400   10.764600   11.414700
C     3.855400    7.868700   10.781500
H     4.505900    7.264900   11.056200
C     5.860000   10.881500   13.569700
C     2.990000    7.557100    9.746900
H     3.097400    6.742900    9.313300
C     6.818900    9.984300   13.990400
H     6.890700    9.136900   13.614700
C     6.751800   12.413700   15.149400
H     6.732900   13.254800   15.548700
C     5.806800   12.162100   14.117000
H     5.198100   12.803900   13.829400
C     7.670000   10.400900   14.997000
H     8.319700    9.799300   15.280400
N     2.430600    2.666200    0.659000
N     3.030400    2.609700   -0.407800
N     4.105000    5.184700    3.558800
N     1.220300    0.156000   -3.284000
C     2.382100    1.735100   -1.352200
C     3.055000    3.539500    1.601200
C     1.636300    0.643800   -0.985200
H     1.508100    0.426100   -0.090100
C     2.557400    3.520700    2.876200
H     1.856300    2.952300    3.101600
C     2.596300    2.020100   -2.685200
H     3.142300    2.722700   -2.955600
C     3.112800    4.356400    3.818500
H     2.770100    4.336400    4.683500
C     1.946600    1.189900   -3.601700
H     2.039100    1.389800   -4.505300
C     4.552800    5.215400    2.311700
H     5.236100    5.812200    2.103500
C     1.079600   -0.124700   -1.998300
H     0.583200   -0.874300   -1.760100
C     4.060700    4.411100    1.305000
H     4.406000    4.461600    0.442200
F     7.267600    3.095500    2.019800
F     9.385300    3.491000    2.584300
B     8.132100    3.923700    2.584300
F     7.724200    4.321800    3.777700
F     8.020400    5.046400    1.888800
F     9.500500    8.685900   11.575000
F     8.883600    8.178800    9.489300
B     8.550900    8.805700   10.609700
F     8.197900   10.046700   10.461600
F     7.429000    8.212600   11.039000

QM/MM links (counting starts at zero)
