118
QM: 53 at, MM: 65 at, Links: 6
Fe   -3.553700   10.855500   10.762500
S    -1.840800   10.825800    8.040300
O    -2.760900   10.188300    8.979100
O    -2.468600   11.163600    6.801900
O    -0.563900   10.178600    7.979300
N    -3.692100   12.840500    9.876700
N    -2.691900   13.237600    9.018900
N    -1.551200   11.605400   11.189700
N    -0.843400   12.202000   10.161900
N    -0.141400   14.449100    8.505600
N    -0.549300   13.212200    8.054600
C    -1.458600   12.456700    8.864000
C    -3.025000   14.371800    8.376400
H    -2.501300   14.828600    7.729600
C    -4.256800   14.744400    8.829500
H    -4.756600   15.506000    8.559400
C    -4.635400   13.786100    9.768000
C     0.449700   12.375700   10.509500
H     1.135000   12.737800    9.959600
C     0.592300   11.939700   11.782700
H     1.387000   11.951900   12.303600
C    -0.671400   11.465400   12.181000
C    -0.104200   12.975600    6.779300
H    -0.268600   12.201600    6.253000
C     0.614500   14.060900    6.420900
H     1.075800   14.190300    5.600800
C     0.545000   14.963000    7.501400
S    -5.266600   10.885200   13.484600
O    -4.346500   11.522700   12.545800
O    -4.638800   10.547400   14.723100
O    -6.543500   11.532400   13.545600
N    -3.415400    8.870500   11.648200
N    -4.415600    8.473400   12.506000
N    -5.556300   10.105600   10.335200
N    -6.264000    9.509000   11.363000
N    -6.966000    7.261900   13.019400
N    -6.558200    8.498800   13.470300
C    -5.648900    9.254300   12.661000
C    -4.082500    7.339200   13.148500
H    -4.606100    6.882400   13.795300
C    -2.850600    6.966600   12.695400
H    -2.350900    6.205000   12.965500
C    -2.472100    7.924900   11.756900
C    -7.557200    9.335300   11.015400
H    -8.242400    8.973200   11.565300
C    -7.699700    9.771300    9.742200
H    -8.494400    9.759100    9.221300
C    -6.436100   10.245600    9.344000
C    -7.003200    8.735400   14.745700
H    -6.838800    9.509400   15.271900
C    -7.722000    7.650100   15.104000
H    -8.183200    7.520700   15.924100
C    -7.652400    6.748000   14.023500
C    -5.856600   13.785800   10.636500
H    -6.112000   12.837700   10.830300
C    -5.565300   14.497500   11.963600
H    -5.321800   15.430000   11.787100
H    -4.825200   14.047000   12.419900
H    -6.364500   14.470400   12.530700
C    -7.026900   14.473600    9.923000
H    -6.801500   15.412600    9.757300
H    -7.826700   14.424800   10.485900
H    -7.198700   14.023100    9.069500
C    -1.082200   10.932600   13.513400
H    -1.807100   10.258400   13.373400
C    -1.636500   12.062600   14.394800
H    -1.927700   11.691400   15.254700
H    -2.398800   12.483800   13.946000
H    -0.936700   12.731300   14.547600
C     0.089600   10.243200   14.212900
H     0.776400   10.907600   14.430300
H     0.470600    9.563700   13.619900
H    -0.226700    9.819900   15.038400
C     1.060900   16.371200    7.564900
H     1.176100   16.617600    8.527100
C     2.407100   16.539400    6.866500
H     3.041900   15.879400    7.216200
H     2.750600   17.442600    7.033300
H     2.294700   16.407000    5.902100
C     0.039000   17.310200    6.956900
H    -0.113800   17.062700    6.020500
H     0.372700   18.228600    7.002100
H    -0.801500   17.242900    7.454100
C    -1.250800    7.925200   10.888400
H    -0.995400    8.873300   10.694700
C    -1.542100    7.213500    9.561400
H    -1.785600    6.281000    9.737900
H    -2.282200    7.664000    9.105000
H    -0.743000    7.240600    8.994200
C    -0.080600    7.237400   11.601900
H    -0.306000    6.298400   11.767700
H     0.719200    7.286200   11.039100
H     0.091300    7.687900   12.455400
C    -6.025300   10.778400    8.011600
H    -5.300400   11.452600    8.151500
C    -5.470900    9.648400    7.130100
H    -5.179700   10.019600    6.270200
H    -4.708600    9.227200    7.578900
H    -6.170700    8.979700    6.977300
C    -7.197000   11.467800    7.312000
H    -7.883800   10.803400    7.094600
H    -7.578000   12.147300    7.905000
H    -6.880700   11.891100    6.486500
C    -8.168400    5.339800   13.960000
H    -8.283600    5.093400   12.997800
C    -9.514500    5.171600   14.658500
H   -10.149300    5.831600   14.308700
H    -9.858000    4.268400   14.491700
H    -9.402100    5.304000   15.622800
C    -7.146500    4.400800   14.568100
H    -6.993600    4.648300   15.504400
H    -7.480100    3.482400   14.522900
H    -6.305900    4.468100   14.070800
Cl    4.850200   14.227200    5.108900
Cl    7.723000   14.513400    4.853200
C     6.384700   13.402200    5.097100
H     6.385600   12.727000    4.372800
H     6.506600   12.928900    5.957000

QM/MM links (counting starts at zero)
 16   53
 21   63
 26   73
 42   83
 47   93
 52  103
