154
QM: 51 at, MM: 103 at, Links: 4
Fe   14.838200   10.967200   18.769000
O    13.957100   12.962300   22.194800
O    11.423900    8.963700   17.858100
N    14.838200   12.883500   18.769000
N    14.337000   11.345500   20.662200
N    14.838200    9.051700   18.769000
N    12.940200   10.589900   18.265000
C    14.838200   15.641700   18.769000
H    14.838200   16.591600   18.769000
C    14.518900   14.952300   19.936700
H    14.298300   15.417100   20.736000
C    14.533800   13.561500   19.896700
C    14.262700   12.600300   20.954300
C    13.841800   11.706600   22.946300
H    12.958300   11.645600   23.391200
H    14.551500   11.645600   23.634000
C    14.003300   10.577800   21.893500
H    14.770200    9.988000   22.145000
C    14.838200    6.291500   18.769000
H    14.838200    5.341900   18.769000
C    13.673800    6.983500   18.451200
H    12.871900    6.519300   18.238500
C    13.717600    8.365800   18.452000
C    12.661700    9.337600   18.171900
C    10.685800   10.226200   17.650900
H     9.874000   10.255400   18.216000
H    10.419100   10.324800   16.701900
C    11.679300   11.339600   18.060800
H    11.387300   11.719400   18.939200
O    15.719300   12.962300   15.343300
N    15.339500   11.345500   16.875900
C    15.157500   14.952300   17.601400
H    15.378100   15.417100   16.802000
C    15.142700   13.561500   17.641400
C    15.413700   12.600300   16.583800
C    15.834600   11.706600   14.591800
H    16.718100   11.645600   14.146900
H    15.124900   11.645600   13.904100
C    15.673200   10.577800   15.644600
H    14.906200    9.988000   15.393100
O    18.252500    8.963700   19.680000
N    16.736200   10.589900   19.273100
C    16.002600    6.983500   19.086900
H    16.804500    6.519300   19.299600
C    15.958800    8.365800   19.086100
C    17.014800    9.337600   19.366200
C    18.990600   10.226200   19.887200
H    19.802400   10.255400   19.322100
H    19.257300   10.324800   20.836100
C    17.997100   11.339600   19.477300
H    18.289100   11.719400   18.598900
C    12.768500    9.741500   21.674700
C    11.546700   10.352500   21.399200
H    11.493200   11.299900   21.369200
C    10.408700    9.593300   21.168200
H     9.583400   10.019000   20.973800
C    10.483600    8.213600   21.220800
H     9.705100    7.690800   21.068900
C    11.691100    7.591300   21.493600
H    11.739000    6.643400   21.526800
C    12.831600    8.350900   21.719300
H    13.658600    7.919800   21.904700
C    11.822100   12.470000   17.072600
C    11.570200   13.775200   17.497800
H    11.334000   13.947200   18.401200
C    11.666600   14.809900   16.596800
H    11.486800   15.696300   16.884600
C    12.017500   14.592800   15.295500
H    12.071400   15.319600   14.684900
C    12.292400   13.307500   14.873800
H    12.548200   13.152400   13.971700
C    12.196400   12.230600   15.765700
H    12.385900   11.345700   15.473200
C    16.907900    9.741500   15.863300
C    18.129800   10.352500   16.138900
H    18.183200   11.299900   16.168900
C    19.267800    9.593300   16.369900
H    20.093000   10.019000   16.564300
C    19.192800    8.213600   16.317300
H    19.971300    7.690800   16.469200
C    17.985300    7.591300   16.044500
H    17.937400    6.643400   16.011200
C    16.844800    8.350900   15.818800
H    16.017800    7.919800   15.633400
C    17.854300   12.470000   20.465500
C    18.106300   13.775200   20.040300
H    18.342400   13.947200   19.136900
C    18.009800   14.809900   20.941300
H    18.189700   15.696300   20.653500
C    17.658900   14.592800   22.242600
H    17.605000   15.319600   22.853200
C    17.384000   13.307500   22.664200
H    17.128200   13.152400   23.566400
C    17.480000   12.230600   21.772300
H    17.290600   11.345700   22.064900
O    11.941100    9.193100   14.313300
O    13.099000    7.800100   15.375900
N    12.105200    8.097100   14.776500
C    11.050800    7.128000   14.609300
H    10.483400    7.122100   15.408100
H    11.441100    6.238600   14.479700
H    10.510700    7.365800   13.826500
O    12.664900    5.554600   12.200600
O    13.437700    4.015300   10.898300
N    13.578200    4.907600   11.719900
C    14.953500    5.209000   12.174100
H    15.394200    5.786600   11.516700
H    15.457200    4.374300   12.267400
H    14.918100    5.666900   13.040700
C     7.425100   11.374500   14.392100
C     6.774200   12.383800   13.683600
H     5.847800   12.521600   13.841500
C     7.415600   13.198600   12.755200
H     6.925900   13.870400   12.295000
C     8.759100   13.033300   12.501700
H     9.205600   13.594100   11.879600
C     9.449200   12.033900   13.170600
H    10.374800   11.904100   13.000700
C     8.793100   11.224100   14.085300
H     9.286700   10.540500   14.522200
C     7.205800    8.889500   15.341300
C     7.523100    7.994900   16.370900
H     7.510300    8.309800   17.267500
C     7.858000    6.661900   16.138100
H     8.058000    6.090900   16.869600
C     7.902400    6.164800   14.846600
H     8.130700    5.256200   14.684900
C     7.610200    7.014200   13.798300
H     7.634300    6.690700   12.905600
C     7.282000    8.339400   14.046800
H     7.099300    8.905200   13.306000
C     5.069400   10.525300   15.364300
C     4.320400   11.582200   15.899600
H     4.765600   12.229100   16.434200
C     2.954200   11.728300   15.685700
H     2.487600   12.458100   16.076300
C     2.273700   10.810900   14.905600
H     1.342200   10.908400   14.750000
C     2.967800    9.759000   14.357800
H     2.513500    9.125300   13.814000
C     4.336000    9.615700   14.595100
H     4.787200    8.869700   14.219400
C     7.081400   11.031000   17.039000
C     7.986900   12.072600   17.274500
H     8.454300   12.447700   16.536800
C     8.227400   12.580200   18.551300
H     8.835000   13.300100   18.666400
C     7.585700   12.041900   19.652200
H     7.763600   12.375300   20.523300
C     6.681600   11.011200   19.464000
H     6.228900   10.632100   20.208000
C     6.439900   10.531100   18.178700
H     5.807900    9.830000   18.070800
B     6.712600   10.447200   15.545500

QM/MM links (counting starts at zero)
 16   51
 27   62
 38   73
 49   84
