115
QM: 49 at, MM: 66 at, Links: 2
Fe    1.846400    4.691500    7.742700
S    -0.004400    6.435300   11.841100
N     1.046600    5.388100    9.504500
N     3.778000    5.629400    8.194100
N     2.781800    2.992300    8.795600
N     3.821500    4.488100   10.263600
C     0.605600    5.823900   10.477000
C     4.379200    6.395600    7.272000
H     3.917100    6.591000    6.488400
C     5.643900    6.906400    7.430700
H     6.015100    7.467200    6.787300
C     6.348000    6.569200    8.560000
H     7.211200    6.892100    8.687300
C     5.769500    5.752800    9.503100
H     6.235100    5.497700   10.266800
C     4.474100    5.322900    9.282000
C     2.563400    1.739700    8.359000
H     2.118800    1.615300    7.552200
C     2.974500    0.637100    9.068300
H     2.797700   -0.218700    8.750800
C     3.648600    0.811100   10.252900
H     3.914100    0.076800   10.756200
C     3.925800    2.090000   10.681200
H     4.399600    2.235900   11.468500
C     3.482900    3.150000    9.913800
S     3.697200    2.947700    3.644300
N     2.646200    3.994900    5.980900
N    -0.085200    3.753600    7.291300
N     0.911000    6.390700    6.689900
N    -0.128700    4.894900    5.221800
C     3.087200    3.559100    5.008400
C    -0.686500    2.987500    8.213500
H    -0.224400    2.792000    8.997000
C    -1.951100    2.476600    8.054700
H    -2.322400    1.915800    8.698200
C    -2.655200    2.813800    6.925400
H    -3.518400    2.490900    6.798100
C    -2.076800    3.630300    5.982300
H    -2.542400    3.885400    5.218600
C    -0.781400    4.060100    6.203500
C     1.129400    7.643300    7.126400
H     1.574000    7.767700    7.933200
C     0.718200    8.745900    6.417200
H     0.895100    9.601700    6.734600
C     0.044100    8.572000    5.232500
H    -0.221300    9.306200    4.729200
C    -0.233100    7.293100    4.804200
H    -0.706800    7.147100    4.016900
C     0.209900    6.233000    5.571700
F     0.270800    6.006000   15.033600
F    -0.255600    6.745700   17.556900
F     1.125500    5.680000   19.602200
F     3.073600    3.892500   19.116300
F     3.630300    3.144200   16.571400
F     6.725300    8.581800   13.343800
F     7.970600    9.978000   11.400800
F     6.564700   10.817200    9.242500
F     3.945900   10.233400    9.007200
F     2.712200    8.836700   10.948700
O     2.182600    4.069200   14.485500
O     4.079400    7.977100   13.194500
N     2.964700    4.238600   12.407500
N     3.964200    6.260000   11.696400
N     3.134500    6.072300   13.912400
C     3.573500    5.003900   11.504100
C     2.793900    4.852300   13.557500
C     3.708000    6.701100   12.900300
C     1.975200    4.573000   15.750800
C     0.991400    5.491700   16.024800
C     0.709800    5.852300   17.315800
C     1.401100    5.312000   18.344000
C     2.378800    4.401900   18.100900
C     2.672200    4.033300   16.801700
C     4.706200    8.661700   12.168600
C     6.041800    8.962900   12.279900
C     6.673300    9.689300   11.288900
C     5.955900   10.101600   10.200200
C     4.648600    9.809900   10.076400
C     4.005000    9.104200   11.073600
F     3.421900    3.377000    0.451900
F     3.948400    2.637300   -2.071500
F     2.567200    3.703000   -4.116800
F     0.619200    5.490500   -3.630900
F     0.062500    6.238800   -1.086000
F    -3.032500    0.801200    2.141600
F    -4.277900   -0.595000    4.084600
F    -2.871900   -1.434200    6.242900
F    -0.253100   -0.850400    6.478200
F     0.980600    0.546300    4.536800
O     1.510100    5.313800    0.999900
O    -0.386600    1.406000    2.290900
N     0.728100    5.144400    3.077900
N    -0.271500    3.123000    3.789000
N     0.558300    3.310700    1.573000
C     0.119200    4.379100    3.981300
C     0.898900    4.530700    1.927900
C    -0.015200    2.681900    2.585100
C     1.717500    4.810000   -0.265400
C     2.701400    3.891300   -0.539400
C     2.983000    3.530700   -1.830400
C     2.291700    4.071000   -2.858600
C     1.314000    4.981100   -2.615500
C     1.020500    5.349700   -1.316300
C    -1.013400    0.721300    3.316800
C    -2.349000    0.420100    3.205500
C    -2.980500   -0.306300    4.196500
C    -2.263200   -0.718600    5.285200
C    -0.955900   -0.426900    5.409100
C    -0.312200    0.278900    4.411800
N     5.432300    0.215800   13.246200
C     4.699400   -0.419300   13.796000
C     3.795500   -1.371800   14.495900
H     3.434700   -1.995700   13.861000
H     3.078200   -0.885400   14.909400
H     4.288800   -1.848000   15.168000

QM/MM links (counting starts at zero)
  5   64
 29   94
