152
QM: 33 at, MM: 119 at, Links: 7
C    11.248200   13.274700    5.979200
H    12.063000   13.741800    5.942500
C    10.846800   12.250600    5.178900
C    11.467100   11.492400    4.120500
H    12.344900   11.678700    3.839700
C    11.442400    9.659000    2.625400
H    11.890600    8.941100    3.119000
H    12.127400   10.157500    2.131800
C    10.467900    9.053100    1.645200
H    10.976100    8.526100    0.993500
H    10.031600    9.781700    1.156000
C     9.388500    8.163500    2.241600
H     9.102500    7.526200    1.554300
H     9.786600    7.646400    2.972500
C     6.051700   11.509100    4.276200
H     5.134700   11.610300    4.454200
C     6.796300   12.498100    3.526200
C     6.516100   13.692100    2.935200
H     5.717400   14.185000    2.992000
C     9.328900    8.626500    6.666200
H     9.079400    9.316500    7.254200
Fe    8.769700   10.392700    4.229300
N    10.236200   13.476400    6.828000
N     9.227200   12.630300    6.588700
N     9.607700   11.866500    5.581600
N    10.784900   10.561000    3.578300
N     8.173100    8.858800    2.769000
N     6.714900   10.484600    4.688400
N     8.064200   12.152200    3.173400
N     8.573700   13.087300    2.401800
N     7.624400   14.014700    2.252900
N     9.725800    7.495900    7.183300
O     9.259600    8.846200    5.458300
B     9.089000   10.221100   11.882900
C     7.836000   10.368100   10.813500
C     7.968900   10.937500    9.544000
H     8.806100   11.278300    9.286600
C     6.905400   11.018700    8.644500
H     7.032400   11.424000    7.805700
C     5.671200   10.510600    8.978100
H     4.957300   10.549400    8.368300
C     5.497400    9.942700   10.221600
H     4.659800    9.592900   10.465800
C     6.560200    9.885700   11.118900
H     6.414400    9.506900   11.966500
C     9.672200    8.674500   11.826100
C     8.821400    7.572100   11.722000
H     7.902600    7.724900   11.596500
C     9.269100    6.265400   11.795200
H     8.652500    5.558100   11.737000
C    10.601000    5.991900   11.950800
H    10.906900    5.103800   11.984500
C    11.477700    7.035000   12.057700
H    12.395500    6.865900   12.169300
C    11.017600    8.348800   12.003400
H    11.640400    9.046600   12.088600
C     8.559200   10.448500   13.433400
C     9.044000    9.709300   14.515800
H     9.706400    9.062400   14.354500
C     8.595000    9.882500   15.815900
H     8.944300    9.350800   16.507400
C     7.641400   10.830000   16.096100
H     7.323200   10.939100   16.973800
C     7.157900   11.616300   15.077300
H     6.526100   12.287300   15.261400
C     7.602500   11.420100   13.775200
H     7.247800   11.960000   13.092800
C    10.261100   11.323500   11.512200
C    10.438800   12.507600   12.229000
H     9.913800   12.658000   12.994300
C    11.370400   13.475900   11.845800
H    11.453800   14.265500   12.350000
C    12.159000   13.287200   10.750500
H    12.785400   13.940700   10.496300
C    12.025800   12.123500   10.017200
H    12.564800   11.981200    9.260200
C    11.094800   11.164200   10.398500
H    11.022600   10.377000    9.889100
B     8.995400    2.687100    3.132700
C     8.481600    2.938100    4.679100
C     9.038100    2.330800    5.806600
H     9.707200    1.683500    5.680700
C     8.650500    2.635700    7.104900
H     9.038700    2.178400    7.828500
C     7.702700    3.605900    7.336300
H     7.445400    3.826800    8.213200
C     7.135000    4.249100    6.251900
H     6.493700    4.921500    6.389100
C     7.509600    3.904600    4.964300
H     7.089200    4.341000    4.245500
C    10.157800    3.831200    2.823000
C    11.033600    4.290300    3.814600
H    10.941000    3.956800    4.688400
C    12.035500    5.220100    3.561100
H    12.604100    5.495500    4.256500
C    12.198800    5.739100    2.293000
H    12.870500    6.373600    2.119400
C    11.361400    5.313800    1.286000
H    11.457200    5.658900    0.417200
C    10.376600    4.375600    1.552900
H     9.827200    4.091000    0.844900
C     7.732500    2.816100    2.080500
C     7.232100    4.044600    1.631900
H     7.635500    4.834600    1.942300
C     6.167100    4.144100    0.748300
H     5.881600    4.992500    0.462300
C     5.523500    3.020600    0.284500
H     4.797900    3.091100   -0.308300
C     5.972000    1.784400    0.712100
H     5.541100    1.002100    0.418900
C     7.054000    1.697600    1.571900
H     7.350200    0.843000    1.828600
C     9.632600    1.187500    2.870100
C    10.477100    0.956000    1.778200
H    10.800800    1.693200    1.294200
C    10.854400   -0.324100    1.379100
H    11.406200   -0.436800    0.626200
C    10.422400   -1.426900    2.085600
H    10.668200   -2.294200    1.819100
C     9.624200   -1.233500    3.190300
H     9.338700   -1.972900    3.695500
C     9.236800    0.043600    3.563900
H     8.684600    0.144100    4.317600
C    10.117100   14.437100    7.926000
H     9.254500   14.877100    7.878300
H    10.822600   15.099300    7.853600
H    10.197000   13.971100    8.772700
C     7.430200    9.434900    1.626100
H     6.626900    9.872600    1.950300
H     7.184700    8.726500    1.009800
H     7.989100   10.081700    1.169400
C     7.318200    7.826400    3.415100
H     7.835600    7.415200    4.138500
H     7.136900    7.126800    2.753500
C     5.974300    8.285700    3.996700
H     5.446600    8.676200    3.269500
H     5.493000    7.491900    4.311100
C     6.015300    9.297000    5.144600
H     5.103800    9.529600    5.419400
H     6.480500    8.909900    5.915800
C     7.873700   15.164800    1.391600
H     8.816900   15.201100    1.165600
H     7.621300   15.977800    1.855600
H     7.350500   15.080000    0.579000
C     9.737100    7.277200    8.614300
H    10.652700    7.171400    8.917100
H     9.232600    6.476200    8.822300
H     9.335100    8.038900    9.059900
C    10.131800    6.389500    6.333600
H     9.414200    5.737900    6.285300
H    10.924200    5.969700    6.703600
H    10.327700    6.719900    5.442500

QM/MM links (counting starts at zero)
 22  123
 26  127
 26  131
 27  137
 30  140
 31  144
 31  148
