128
QM: 30 at, MM: 98 at, Links: 12
Fe    3.353800    9.855400    3.740100
H     2.929500    9.982700    5.033300
P     3.984900    9.453900    1.660800
P     4.736400   11.501800    4.061200
Si    1.510900   11.011900    3.752100
Si    4.211700    8.379000    5.093400
N     0.792800   12.738900    3.408300
N     0.639800   11.707600    5.282600
N     0.189100   10.025400    3.117700
N     2.891900    7.306200    5.601300
N     5.186900    8.479500    6.731000
N     5.597400    7.086700    5.150100
C     0.341900   12.835500    4.666900
C    -1.143600   10.203400    2.811000
H    -1.591900   11.037900    2.737700
C    -1.703600    8.982300    2.632700
H    -2.610300    8.809200    2.407100
C    -0.702100    8.017800    2.841300
H    -0.812600    7.076300    2.778700
C     0.462500    8.675600    3.151600
C     1.837100    8.248400    3.577300
H     2.163200    7.668200    2.831100
C     1.785500    7.333400    4.776500
C     0.904100    6.389500    5.239400
H     0.049800    6.193600    4.871700
C     1.491600    5.760900    6.360900
H     1.105100    5.066700    6.881300
C     2.706700    6.326700    6.559300
H     3.325300    6.090700    7.240500
C     5.977800    7.462200    6.365700
C     0.818500   13.766900    2.344800
C    -0.591400   14.164600    1.913100
H    -1.111200   13.358200    1.713000
H    -0.541000   14.727500    1.112100
H    -1.026100   14.662900    2.635700
C     1.593300   14.990000    2.785000
H     1.120800   15.427200    3.523800
H     1.672500   15.614000    2.033200
H     2.487200   14.721000    3.082000
C     1.486900   13.101400    1.156100
H     2.389500   12.813500    1.407600
H     1.542600   13.738400    0.413500
H     0.961000   12.322200    0.879500
C    -0.320800   14.017600    5.277900
C    -1.664700   14.283400    5.070700
H    -2.186400   13.717500    4.514900
C    -2.242300   15.395200    5.693000
H    -3.163000   15.588300    5.556500
C    -1.479100   16.213300    6.502500
H    -1.876300   16.965400    6.925900
C    -0.156500   15.942600    6.695000
H     0.365300   16.516600    7.243400
C     0.426500   14.853300    6.107500
H     1.343900   14.665300    6.265300
C     0.111900   11.170500    6.563300
C     0.755200   11.885500    7.744500
H     1.729200   11.878100    7.639800
H     0.511900   11.426600    8.575600
H     0.436900   12.812000    7.777900
C    -1.418800   11.308400    6.606800
H    -1.659100   12.253100    6.708500
H    -1.771300   10.798300    7.365700
H    -1.802000   10.961800    5.774100
C     0.440300    9.694100    6.615500
H     0.028500    9.240400    5.850900
H     0.093500    9.311500    7.448300
H     1.412700    9.574500    6.581300
C     5.146500    9.189700    8.039900
C     4.338900   10.432800    7.848600
H     4.802800   11.031600    7.227200
H     4.223900   10.883200    8.711800
H     3.460600   10.198400    7.483200
C     4.432900    8.327600    9.053900
H     3.562900    8.053600    8.695100
H     4.299200    8.837500    9.880200
H     4.972600    7.532200    9.244800
C     6.501100    9.584300    8.540400
H     7.022800    8.778900    8.739900
H     6.404300   10.120600    9.355100
H     6.962000   10.111000    7.855100
C     7.101500    6.879200    7.141100
C     6.873800    5.938400    8.143700
H     5.985900    5.664800    8.343400
C     7.934600    5.402100    8.848600
H     7.775300    4.762500    9.532600
C     9.217900    5.793100    8.560900
H     9.947100    5.421400    9.043500
C     9.450000    6.722300    7.574900
H    10.340100    6.991500    7.382100
C     8.402000    7.268200    6.862300
H     8.571300    7.909300    6.181900
C     5.917600    5.852700    4.398700
C     4.930700    5.813800    3.235000
H     4.014500    5.833600    3.582700
H     5.066400    4.991900    2.718900
H     5.077100    6.591000    2.656300
C     7.340600    5.866500    3.879400
H     7.498300    6.695000    3.380200
H     7.480100    5.097500    3.288200
H     7.964200    5.816000    4.633700
C     5.664200    4.601400    5.235500
H     6.307200    4.567000    5.974400
H     5.769900    3.805600    4.673300
H     4.753400    4.628100    5.596000
C     3.717900   10.655700    0.294200
H     2.756400   10.769900    0.142800
H     4.139600   10.319100   -0.523900
H     4.115400   11.518300    0.535500
C     3.298500    8.018800    0.720900
H     3.504600    7.187500    1.197000
H     3.699100    7.991700   -0.172900
H     2.326300    8.116200    0.640100
C     5.784900    9.150100    1.371100
H     6.287700    9.972900    1.547100
H     5.924500    8.874900    0.440900
H     6.097800    8.441600    1.971700
C     4.201400   12.805300    5.249600
H     3.494800   13.348500    4.842300
H     4.965300   13.377000    5.473000
H     3.859700   12.383200    6.065400
C     5.260800   12.678600    2.735200
H     5.785900   12.198600    2.061500
H     5.806600   13.391300    3.128300
H     4.467400   13.069900    2.313300
C     6.433200   11.136000    4.679600
H     6.373900   10.606300    5.502000
H     6.901300   11.976600    4.865400
H     6.926400   10.630600    4.000300

QM/MM links (counting starts at zero)
  2  104
  2  108
  2  112
  3  116
  3  120
  3  124
  6   30
  7   54
 10   67
 11   91
 12   43
 29   80
