107
QM: 19 at, MM: 88 at, Links: 6
Fe    5.509900    2.309600    8.202800
O     5.718600    1.963100    6.078300
O     5.432800    2.009300   10.415100
O     5.880000    0.306700    8.391600
H     5.691900   -0.145000    7.731100
H     5.791000   -0.119300    9.086200
N     4.960600    4.299700    8.691600
N     3.289400    2.447000    8.031200
N     7.396000    3.533300    8.180100
C     3.672700    4.580300    8.933700
C     3.292500    5.763500    9.551700
H     2.374900    5.961800    9.699400
C     4.283500    6.649600    9.949300
H     4.050900    7.454200   10.397600
C     5.619300    6.357000    9.688600
H     6.307700    6.960100    9.942900
C     5.921400    5.157700    9.046000
C     2.731700    3.529000    8.453600
C     7.292400    4.727300    8.651800
S     5.584500    0.797000    5.199700
S     5.919100    2.482200   11.698100
F     8.032600    0.175800    5.884700
F     7.899600    1.370200    4.102300
F     7.352300   -0.711300    4.040100
F     4.627300    3.256900   13.829100
F     3.601000    3.641000   11.989800
F     3.683800    1.643400   12.769800
O     4.980600    1.073300    3.933700
O     5.136400   -0.391800    5.881200
O     6.608400    1.486200   12.473000
O     6.533200    3.780700   11.653300
C     1.271500    3.818400    8.476100
H     0.780100    3.045100    8.128400
H     1.085200    4.602900    7.917100
H     0.987700    3.998500    9.396200
C     2.512400    1.412800    7.399200
C     2.164700    1.573000    6.046100
C     1.584400    0.485600    5.405100
H     1.352300    0.555600    4.485700
C     1.336900   -0.702900    6.082400
H     0.962200   -1.442300    5.620300
C     1.633800   -0.811000    7.422800
H     1.423500   -1.614300    7.884900
C     2.240900    0.242800    8.113900
C     2.421400    2.888000    5.336200
H     1.969100    3.607100    5.843100
H     3.393800    3.072000    5.367600
C     1.970900    2.970000    3.896800
H     1.011400    2.774300    3.842600
H     2.466700    2.316200    3.360200
H     2.140400    3.871400    3.553200
C     2.515600    0.125400    9.589400
H     3.229900    0.763500    9.839500
H     2.840000   -0.787900    9.789000
C     1.269900    0.410600   10.422900
H     1.481400    0.305400   11.373800
H     0.560500   -0.218100   10.174900
H     0.967500    1.326800   10.255200
C     8.407500    5.712700    8.805700
H     8.461600    6.001600    9.740800
H     8.238700    6.489200    8.231800
H     9.253900    5.292000    8.544100
C     8.657800    3.091900    7.633700
C     9.462800    2.230000    8.392500
C    10.655700    1.783000    7.823200
H    11.221700    1.204900    8.321300
C    11.028700    2.164500    6.552300
H    11.845400    1.849100    6.183000
C    10.213000    3.008200    5.812300
H    10.477600    3.261900    4.935800
C     9.010900    3.490700    6.333400
C     9.103800    1.841400    9.800200
H     9.437600    0.926500    9.981900
H     8.118300    1.831100    9.894600
C     9.698300    2.806400   10.823900
H     9.434900    2.527900   11.725200
H     9.364300    3.712300   10.650300
H    10.675700    2.798700   10.751400
C     8.091800    4.381800    5.531400
H     8.043700    5.261200    5.983200
H     7.183200    3.988200    5.553700
C     8.472300    4.614600    4.078900
H     9.333500    5.081500    4.037800
H     7.784500    5.159800    3.645000
H     8.545200    3.752100    3.617500
C     7.319600    0.395400    4.792500
C     4.376000    2.762800   12.619100
C    13.010700    4.182000   12.549800
H    12.574000    3.721300   13.296200
H    13.072100    3.575000   11.782600
H    13.911200    4.459200   12.818500
C    12.320700    5.220100   12.221300
H    11.405900    4.940400   11.964100
H    12.247600    5.825800   13.002200
C    12.835800    5.815500   11.295700
H    12.596500    5.453600   10.404500
H    13.816200    5.920700   11.385300
C    11.899500    8.650100   10.418300
H    12.336100    9.110800    9.671900
H    11.838100    9.257100   11.185500
H    10.998900    8.372900   10.149600
C    12.589500    7.612000   10.746800
H    13.504300    7.891700   11.004000
H    12.662600    7.006300    9.965800
C    12.074300    7.016600   11.672400
H    12.313700    7.378500   12.563500
H    11.093900    6.911400   11.582800

QM/MM links (counting starts at zero)
  1   19
  2   20
  7   35
  8   62
 17   31
 18   58
