114
QM: 51 at, MM: 63 at, Links: 2
C     3.542900    7.788000    9.622100
H     3.948800    7.140500   10.251500
H     2.622400    7.485000    9.422300
C     3.492000    9.145500   10.267700
C     2.430400    9.528600   11.086900
H     1.692400    8.946300   11.216800
C     2.463100   10.756900   11.705100
H     1.743600   11.037700   12.258300
C     3.556600   11.576000   11.507800
H     3.613700   12.420400   11.938600
C     4.562200   11.143600   10.677300
H     5.304000   11.718500   10.532500
C     4.911100    6.493100    8.091000
H     5.244800    6.471400    7.159400
H     4.208500    5.801400    8.180900
C     6.031600    6.183500    9.023900
C     6.464700    4.887200    9.223700
H     6.045600    4.163800    8.771600
C     7.508000    4.660500   10.084100
H     7.831400    3.778700   10.227700
C     8.081600    5.730100   10.738500
H     8.791300    5.592600   11.354200
C     7.618400    6.982000   10.492500
H     8.028200    7.714600   10.938300
C     3.515500    8.309600    7.250600
H     2.856100    8.969500    7.584000
H     3.017300    7.554600    6.847200
C     4.391300    8.956900    6.199100
H     4.999100    8.278500    5.809500
H     3.824900    9.315900    5.469800
C     6.323400   10.383200    5.904400
H     6.694700   11.264000    6.164100
H     5.994000   10.455300    4.974000
C     7.401600    9.361600    5.964300
C     8.295500    9.204500    4.910300
H     8.210500    9.739900    4.129800
C     9.296900    8.278400    5.000200
H     9.912300    8.161900    4.284700
C     9.398900    7.517500    6.144100
H    10.081300    6.863100    6.232800
C     8.493700    7.724700    7.155700
H     8.573100    7.202000    7.944900
C     7.872500   11.061700    9.562100
Fe    6.132800    9.211700    8.736700
N     4.332300    7.818100    8.373600
N     4.547400    9.949200   10.060200
N     6.603400    7.235200    9.643900
N     5.193000   10.056900    6.790300
N     7.504300    8.623700    7.087000
O     7.673800    9.881000    9.942900
O     7.180400   11.567700    8.670500
B     2.183600    3.090600   10.493700
C     2.719600    4.355400   11.419100
C     4.051000    4.647900   11.693800
H     4.723600    4.098400   11.308000
C     4.443800    5.707600   12.506800
H     5.367900    5.871400   12.657900
C     3.498200    6.515600   13.090000
H     3.757900    7.231800   13.657000
C     2.168000    6.269000   12.836500
H     1.503800    6.821300   13.233600
C     1.788200    5.229400   12.016000
H     0.863300    5.096000   11.846200
C     0.906100    3.646400    9.629600
C     1.030100    4.740300    8.756600
H     1.886900    5.132800    8.635500
C    -0.043100    5.267700    8.069800
H     0.085500    5.994400    7.472900
C    -1.305100    4.742200    8.249600
H    -2.050500    5.103900    7.781300
C    -1.465700    3.699400    9.106300
H    -2.332500    3.340800    9.254900
C    -0.388400    3.160400    9.760700
H    -0.535500    2.416500   10.332600
C     1.692900    1.846500   11.469100
C     1.106800    2.032900   12.721600
H     0.988600    2.919500   13.041300
C     0.688900    0.977200   13.520900
H     0.295800    1.153000   14.368800
C     0.836400   -0.312100   13.096300
H     0.562400   -1.036900   13.647000
C     1.387700   -0.546700   11.858700
H     1.489500   -1.439100   11.547700
C     1.797100    0.515400   11.060700
H     2.161100    0.328200   10.204000
C     3.400600    2.534100    9.537200
C     4.469600    1.817200   10.081600
H     4.486900    1.679400   11.022000
C     5.505700    1.296300    9.318600
H     6.224800    0.841400    9.739500
C     5.488200    1.441200    7.939900
H     6.176000    1.064000    7.404200
C     4.461100    2.139600    7.364200
H     4.440500    2.257800    6.422600
C     3.443600    2.676900    8.149700
H     2.748800    3.161200    7.721400
C     4.373100   11.278000    7.038300
H     4.935100   11.934100    7.520300
H     3.628700   11.030300    7.642700
C     3.783200   11.965700    5.821900
C     4.463000   13.013600    5.208800
H     5.331100   13.253600    5.512200
C     3.887900   13.707700    4.161000
H     4.354600   14.431100    3.760200
C     2.648300   13.356900    3.700200
H     2.255000   13.841400    2.984700
C     1.968000   12.302400    4.269700
H     1.115200   12.044700    3.937500
C     2.539200   11.620200    5.336200
H     2.065500   10.901800    5.738300
C     8.967300   11.842600   10.241500
H     9.784100   11.301100   10.272700
H     8.690800   12.066900   11.154400
H     9.140700   12.666700    9.740700

QM/MM links (counting starts at zero)
 42  110
 47   96
