109
QM: 40 at, MM: 69 at, Links: 3
Fe    6.843400    8.251000   11.247900
O     8.331400    8.603200   12.408600
O     7.485100    9.221800    9.752900
O     5.594100    9.591100   11.918300
N     6.518100    6.801400   12.861500
N     7.941700    6.708700   10.123200
N     4.958200    7.649500   10.302600
C     5.627000    5.798800   12.911200
H     4.923700    5.781000   12.273400
C     5.693900    4.792900   13.851200
H     5.047400    4.096700   13.860000
C     6.716800    4.816100   14.779900
H     6.800300    4.121000   15.422500
C     7.617600    5.867000   14.759300
H     8.323400    5.906600   15.394200
C     7.480700    6.861500   13.802800
C     8.442500    8.042600   13.654000
H     9.372500    7.684600   13.739700
C     8.077000    5.394900   10.387300
H     7.715700    5.056200   11.197800
C     8.713600    4.522200    9.538200
H     8.802900    3.603200    9.762700
C     9.218900    5.009900    8.355500
H     9.638600    4.423900    7.736000
C     9.111400    6.356200    8.076000
H     9.452000    6.707500    7.261900
C     8.497400    7.192400    9.001400
C     8.354800    8.697600    8.822100
H     7.956000    8.854400    7.918600
C     4.679000    6.567500    9.574000
H     5.372800    5.940800    9.407500
C     3.427500    6.319600    9.053500
H     3.270800    5.545300    8.525700
C     2.405400    7.209300    9.309200
H     1.530700    7.047800    8.977200
C     2.675000    8.340000   10.057500
H     1.986300    8.965700   10.251000
C     3.969300    8.549000   10.523700
C     4.379400    9.768600   11.333800
H     3.708000    9.882200   12.066800
C     8.261300    9.139700   14.747600
C     7.476200   10.498600   14.285000
H     7.039900   10.571800   13.255600
C     9.712700    9.465100    8.873300
C    10.340200    9.806300   10.345500
H     9.824500    9.437200   11.268600
C     4.375800   11.089500   10.483800
C     5.855500   11.741000   10.249300
H     6.768100   11.205200   10.614700
B     9.185400   10.564100   14.412600
H     9.897100   10.670900   13.554300
B     8.151300   11.899200   14.954300
H     8.187200   12.899400   14.451600
B     7.883700   11.719600   16.703400
H     7.754300   12.605300   17.375600
B     8.753100   10.252300   17.234700
H     9.196600   10.169700   18.260100
B     8.013000    8.855500   16.415300
H     7.972100    7.838800   16.883000
B     9.542200    9.541800   15.817700
H    10.503600    8.973400   15.895200
B     9.473600   11.307600   15.985900
H    10.390500   11.921200   16.183900
B     6.691700    9.450400   15.388900
H     5.783400    8.835700   15.164900
B     6.980600   10.198300   16.970600
H     6.257200   10.080500   17.817100
B     6.618500   11.220600   15.560600
H     5.651900   11.775800   15.457800
B    11.146400    8.641800    9.381400
H    11.205000    7.545800    9.608400
B    11.774700   10.849400    7.637500
H    12.268400   11.206300    6.698600
B    10.007000   10.763400    7.797000
H     9.316400   11.055400    6.964700
B     9.595100   11.086200    9.487400
H     8.637400   11.585200    9.783900
B    11.090600   11.340700   10.388400
H    11.123300   12.011500   11.284100
B    12.045100    9.846900   10.322600
H    12.704000    9.544000   11.175200
B    12.454100   11.208500    9.250200
H    13.395000   11.803300    9.374900
B    12.474000    9.530800    8.630000
H    13.429400    9.019700    8.347400
B    10.919400   11.973000    8.734300
H    10.848800   13.070100    8.520100
B    10.959600    9.267500    7.722300
H    10.898900    8.580100    6.840100
B     5.839700   13.422600   10.353600
H     6.676600   14.049400   10.754800
B     4.135400   13.850000   10.618200
H     3.831700   14.768700   11.182200
B     4.832600   12.448800   11.436000
H     5.000200   12.416900   12.542300
B     3.212600   12.333200   10.724000
H     2.298300   12.232900   11.363400
B     3.349500   11.483900    9.165600
H     2.523100   10.829500    8.787600
B     5.059000   11.062000    8.890900
H     5.367200   10.134400    8.344600
B     4.363700   12.470900    8.079800
H     4.207100   12.483000    6.970300
B     3.211500   13.257400    9.204400
H     2.296500   13.787300    8.835700
B     4.848400   13.931600    8.975100
H     5.013900   14.909700    8.455000
B     5.980700   12.582100    8.795200
H     6.908300   12.657000    8.171900

QM/MM links (counting starts at zero)
 16   40
 27   43
 38   46
