162
QM: 47 at, MM: 115 at, Links: 12
Fe    6.331900    6.368700    4.016900
N     8.235700    5.952500    3.979100
N     6.447100    6.748200    5.934800
N     4.474700    6.975400    4.009000
N     6.156400    5.788500    2.159800
N     6.809000    8.268400    3.449800
N     5.818500    4.460400    4.532200
C     8.958300    5.745200    2.843300
C    10.298700    6.181200    3.046700
C    10.409600    6.563700    4.340500
C     9.126900    6.365300    4.940900
C     8.796100    6.338500    6.296900
C     7.476200    6.292000    6.725700
C     6.947300    5.875700    7.996300
C     5.629900    6.192000    8.007700
C     5.357600    6.803100    6.740900
C     4.215800    7.491100    6.352500
C     3.940900    7.732300    4.988700
C     2.963900    8.606200    4.432900
C     2.831000    8.273800    3.124700
C     3.753400    7.226600    2.868200
C     3.858600    6.408200    1.755500
C     4.926200    5.566500    1.545400
C     5.051400    4.462100    0.662300
C     6.346200    4.076100    0.674200
C     7.046900    4.946400    1.553800
C     8.419100    5.091200    1.737000
C     6.951300    8.600800    2.186900
H     6.872200    7.925300    1.551000
C     7.207100    9.866000    1.738800
H     7.314700   10.042900    0.833400
C     7.297500   10.850700    2.654500
H     7.439400   11.731700    2.394700
C     7.179100   10.530800    3.956000
H     7.259400   11.188400    4.606700
C     6.943300    9.247700    4.312000
H     6.873100    9.047600    5.216300
C     4.542300    4.104700    4.599000
H     3.890300    4.749800    4.444700
C     4.152300    2.837800    4.884500
H     3.247700    2.619700    4.915400
C     5.075700    1.908500    5.123700
H     4.823300    1.036500    5.321800
C     6.410000    2.255200    5.069700
H     7.075100    1.626200    5.234400
C     6.721200    3.543600    4.771400
H     7.618500    3.784900    4.735400
C    11.375200    6.329600    2.017300
H    12.229200    6.435000    2.464100
H    11.416800    5.521800    1.481600
C    11.143600    7.500000    1.117600
H    10.404300    7.312400    0.532400
H    11.932000    7.662700    0.594200
H    10.944800    8.275600    1.646200
C    11.555900    7.323100    4.939800
H    11.718200    7.006800    5.841400
H    12.358100    7.165900    4.416400
C    11.260200    8.776000    4.969400
H    11.049500    9.078000    4.082000
H    12.028500    9.253100    5.293500
H    10.512600    8.940400    5.550700
C     7.652900    5.041100    9.002600
H     7.130100    4.998200    9.817900
H     8.511600    5.441400    9.213500
C     7.862000    3.654400    8.463700
H     7.015100    3.280900    8.207800
H     8.262500    3.104000    9.141500
H     8.439600    3.691900    7.698500
C     4.632600    5.722000    9.006700
H     5.090400    5.455700    9.817900
H     4.030900    6.451100    9.226400
C     3.846100    4.574700    8.485100
H     3.302600    4.867800    7.749900
H     3.283500    4.229800    9.182600
H     4.445600    3.886700    8.187200
C     2.379800    9.816000    5.079500
H     1.981700    9.565800    5.926300
H     1.678000   10.173400    4.514100
C     3.414500   10.879300    5.314100
H     4.106100   10.532600    5.882500
H     3.003500   11.636900    5.738500
H     3.793000   11.149100    4.475600
C     1.971500    8.979700    2.135700
H     2.229900    8.706300    1.242400
H     2.126400    9.933900    2.209500
C     0.505100    8.706300    2.325200
H     0.330500    7.773500    2.170900
H    -0.001700    9.233400    1.702800
H     0.249100    8.935000    3.220300
C     3.910800    3.702700    0.062500
H     4.245600    3.086100   -0.607000
H     3.301500    4.321000   -0.373000
C     3.168100    2.927100    1.147200
H     3.719100    2.206900    1.461000
H     2.352400    2.573300    0.784500
H     2.964600    3.515000    1.877700
C     6.879700    2.828800    0.080500
H     7.759400    2.993200   -0.293200
H     6.297800    2.530400   -0.635300
C     6.969400    1.754800    1.157500
H     7.614700    2.017500    1.818500
H     7.237200    0.923900    0.758800
H     6.111300    1.647600    1.574200
C     9.848700    6.331300    7.341200
C    10.757800    5.307400    7.411700
H    10.729200    4.621200    6.785400
C    11.708400    5.289500    8.400400
H    12.325200    4.596200    8.441800
C    11.745100    6.318800    9.342900
H    12.376300    6.302700   10.026300
C    10.884800    7.310600    9.263600
H    10.923500    7.998600    9.887400
C     9.906200    7.351700    8.248900
H     9.308000    8.062900    8.197500
C     3.259800    7.925300    7.393400
C     3.607700    8.786700    8.373700
H     4.464700    9.151200    8.380100
C     2.716900    9.138700    9.365000
H     2.968700    9.733800   10.034000
C     1.466400    8.606200    9.359100
H     0.864700    8.831400   10.031400
C     1.095500    7.762700    8.390400
H     0.236100    7.407100    8.395500
C     1.980300    7.412500    7.373900
H     1.710800    6.842400    6.690200
C     2.760400    6.361700    0.745900
C     1.550300    5.809500    1.074400
H     1.380500    5.555800    1.952300
C     0.581200    5.627300    0.108500
H    -0.227900    5.227000    0.337000
C     0.797700    6.025800   -1.173400
H     0.144200    5.891700   -1.821100
C     1.980600    6.624400   -1.503900
H     2.120700    6.931800   -2.371500
C     2.976200    6.772700   -0.546300
H     3.790900    7.153400   -0.781900
C     9.315800    4.522900    0.709400
C     9.312200    5.055400   -0.589500
H     8.747300    5.763100   -0.799900
C    10.147200    4.530000   -1.557400
H    10.145000    4.883900   -2.417800
C    10.965700    3.506100   -1.249600
H    11.524500    3.146900   -1.900800
C    10.978100    2.982500    0.033400
H    11.558500    2.287400    0.241800
C    10.139600    3.486400    0.997700
H    10.138000    3.116500    1.849400
Cl   -0.426300    3.228600    2.817000
Cl    0.818000    4.906200    4.784700
C    -0.519000    3.879600    4.431800
H    -1.342700    4.381700    4.527000
H    -0.538300    3.148700    5.069700
Cl    1.094300    0.564000   -1.119900
Cl    3.934300    0.296600   -1.053300
C     2.518100    0.595100   -2.001100
H     2.603500    1.463600   -2.425600
H     2.466200   -0.071500   -2.703300
Cl   10.283300    1.823100    5.063000
O     9.632100    1.386700    3.801700
O    11.529100    1.411700    5.327000
O    10.239000    3.193400    4.804800
O     9.394800    1.431400    6.078800

QM/MM links (counting starts at zero)
  8   47
  9   54
 11  103
 13   61
 14   68
 16  114
 18   75
 19   82
 21  125
 23   89
 24   96
 26  136
