107
QM: 107 at, MM: 0 at, Links: 0
Fe    3.670400    2.104100    1.752400
N     1.932900    1.898000    0.920300
C     0.909400    1.659400    0.438300
Se   -0.699900    1.311300   -0.289600
N     5.411000    2.329500    2.588200
C     6.445000    2.547100    3.082500
Se    8.032400    2.885800    3.856000
N     3.690000    4.007400    1.141900
N     4.596800    1.526300    0.065600
N     3.579100    0.173800    2.290000
N     2.824200    2.660500    3.480300
C     2.593500    4.805000    1.223500
H     1.803600    4.452100    1.616100
C     2.576600    6.099400    0.762900
H     1.784400    6.618900    0.852300
C     3.710400    6.663600    0.164200
C     4.831100    5.837600    0.084500
H     5.627400    6.164600   -0.316800
C     4.796000    4.548500    0.583100
H     5.582700    4.019100    0.530600
C     3.773500    8.033000   -0.361500
H     4.594900    8.304100   -0.751200
C     2.787900    8.935400   -0.346900
H     1.966100    8.680900    0.055400
C     2.880000   10.295700   -0.905700
C     1.700300   11.019600   -1.143800
H     0.860400   10.651700   -0.894100
C     1.753800   12.277900   -1.746300
H     0.949600   12.751600   -1.925100
C     2.975900   12.836900   -2.082600
H     3.011200   13.692200   -2.494600
C     4.148200   12.147600   -1.818200
H     4.986900   12.537400   -2.034900
C     4.099800   10.888700   -1.238100
H     4.910400   10.422300   -1.064100
C     4.204900    1.906500   -1.171000
H     3.473300    2.505700   -1.247800
C     4.812900    1.469200   -2.324500
H     4.512100    1.794500   -3.165200
C     5.870200    0.550800   -2.275000
C     6.300000    0.176100   -0.988300
H     7.032600   -0.419400   -0.886300
C     5.657900    0.673900    0.118600
H     5.974700    0.407200    0.974700
C     6.430700   -0.011900   -3.502400
H     6.353900    0.499900   -4.299200
C     7.048200   -1.203600   -3.580100
H     7.252500   -1.631900   -2.757000
C     7.437000   -1.906400   -4.800700
C     7.433500   -1.324400   -6.069900
H     7.246100   -0.396600   -6.159300
C     7.698600   -2.077600   -7.199100
H     7.673100   -1.665400   -8.054300
C     8.001000   -3.436800   -7.095100
H     8.186100   -3.950700   -7.872600
C     8.028100   -4.021100   -5.842500
H     8.237100   -4.944500   -5.756000
C     7.751500   -3.265900   -4.708400
H     7.778200   -3.681700   -3.854200
C     3.188700   -0.775400    1.408100
H     2.823200   -0.496900    0.577200
C     3.296800   -2.123500    1.655900
H     3.020800   -2.748800    0.997100
C     3.811700   -2.578400    2.877500
C     4.118200   -1.594700    3.822100
H     4.410100   -1.844700    4.690900
C     3.996800   -0.266500    3.494600
H     4.218900    0.379900    4.155400
C     4.065300   -4.017900    3.068900
H     3.769600   -4.613200    2.389700
C     4.678100   -4.539500    4.124300
H     4.900800   -3.935500    4.824000
C     5.052800   -5.953200    4.335200
C     5.007900   -6.907000    3.334200
H     4.719200   -6.661500    2.463500
C     5.383900   -8.226000    3.589800
H     5.356500   -8.869300    2.891100
C     5.799100   -8.604000    4.860900
H     6.041600   -9.504500    5.043600
C     5.852000   -7.645500    5.852200
H     6.137200   -7.892300    6.724900
C     5.497700   -6.327800    5.597600
H     5.560400   -5.679900    6.289500
C     1.753800    2.020900    3.979500
H     1.408400    1.277900    3.499500
C     1.128300    2.390300    5.161200
H     0.395100    1.881100    5.488700
C     1.571300    3.513700    5.873600
C     2.730500    4.133800    5.377000
H     3.116400    4.862400    5.849300
C     3.312400    3.689000    4.206000
H     4.094700    4.128500    3.895900
C     0.782600    4.016500    6.998900
H     0.258100    3.399100    7.495500
C     0.765400    5.308400    7.361400
H     1.398900    5.878900    6.943500
C    -0.135400    5.928000    8.339000
C    -0.841600    5.193300    9.301100
H    -0.697800    4.257600    9.383700
C    -1.750000    5.826700   10.131000
H    -2.214600    5.322800   10.788000
C    -1.989700    7.194200   10.014400
H    -2.638400    7.615700   10.566400
C    -1.274300    7.935600    9.086300
H    -1.418000    8.872400    9.018300
C    -0.349900    7.315600    8.258400
H     0.143400    7.833000    7.630600

QM/MM links (counting starts at zero)
