115
Coordinates from ORCA-job BEQDEH_0_4_tpss_d4_lanl2dz_631gpol_Co2.opt
  Co  3.18531727423850      0.79079295795774      6.03797710068567
  O   2.32988905632095     -0.14186925354670      4.48053150613740
  O   3.96473339895423     -0.80211983931038      6.99557393840137
  O   2.87021111793383      2.82681575682422      6.04244599141618
  N   1.80819460382452     -2.40560055087700      4.10228346611459
  N   1.19001267090249     -3.46464883073730      4.76742089809901
  N   1.49015455368130      0.49196107733468      7.19519733633448
  N   4.34871408310823     -3.04419665297118      6.37077870779179
  N   4.92694309932794     -3.74797349621559      5.31208724614431
  N   4.95288125218496      0.88792814029166      4.88802510508558
  N   3.25083590941959      4.99148516282203      6.64984398130624
  C   1.78059762472295     -1.24599786341690      4.85045281637228
  C   1.06498938453871     -1.57231284801776      6.05217674332720
  C   0.74052269658291     -2.97059738246593      5.91169707948996
  C   0.05678800813390     -3.91128735640372      6.85930737576891
  H   0.24390460061178     -4.93675359644767      6.52360177680375
  H   -1.02806216723561     -3.74373688094156      6.89440722532840
  H   0.44337931521092     -3.79481149905088      7.87774596991413
  C   0.80752555823298     -0.65108059241943      7.10651724735715
  C   4.45935607927902     -1.68008770946907      6.19365861886124
  C   5.18892636721703     -1.49873768705270      4.97873386799807
  C   5.43659413779167     -2.83367045652223      4.49840619515187
  C   6.10058029080739     -3.29601922312462      3.23585594653495
  H   7.18989594706747     -3.16026847363379      3.27254725024527
  H   5.72649725407242     -2.73768866872861      2.36997951572496
  H   5.88100647634715     -4.35953340185077      3.09425471547455
  C   5.55295475208150     -0.22325751119503      4.46324434119927
  C   2.44775620461818     -2.65300904564416      2.86407570933839
  C   2.61278474340579     -3.98711600590132      2.44967957349773
  H   2.25951836016388     -4.78127660319842      3.09910188672782
  C   3.22623363063403     -4.25875359367841      1.22476749618684
  H   3.34966351460219     -5.29489348258371      0.91189898215377
  C   3.68791703774597     -3.21752894512925      0.40680111992127
  H   4.16923996910652     -3.43592499386305     -0.54525424886940
  C   3.52645851397999     -1.89283227170645      0.83250317069221
  H   3.88160986346194     -1.07194881589939      0.21038092379320
  C   2.90678149696347     -1.59873979889118      2.05232563519022
  H   2.77420613904494     -0.57461374295551      2.37832694435086
  C   -0.21013278578445     -0.98691505253059      8.14291413798136
  C   -1.53006159808383     -1.30575503988782      7.78235243736546
  H   -1.80580037411254     -1.31174414150684      6.72860872223967
  C   -2.47930491170420     -1.59631686951889      8.76855377875315
  H   -3.50365140157354     -1.83111390737008      8.48247221549162
  C   -2.11084045068445     -1.58895016936762     10.12056317049509
  H   -2.84748107515769     -1.82352116231000     10.88770629366955
  C   -0.79284035274537     -1.27742729549416     10.48502003750741
  H   -0.50320129192537     -1.27263443355356     11.53490302950486
  C   0.15126473545757     -0.96777771463394      9.50244074392860
  H   1.17335179087783     -0.71440992461546      9.77715793511770
  C   1.06698159343326      1.56423280762259      8.00655072474702
  C   -0.21129197940704      2.10840186465684      7.90858669896905
  H   -0.94600713402885      1.62216818843418      7.27098562431086
  C   -0.54379174517044      3.30196757839485      8.58898398601376
  H   -1.55320207878254      3.70057238801967      8.49367666282964
  C   0.40194563151667      3.98139345519142      9.33866841773834
  H   0.15098894447685      4.91667254933558      9.83900509949031
  C   1.72010088498174      3.46000894066377      9.46416915293133
  C   2.73793177986224      4.14349630914642     10.18974821432260
  H   2.48896887347019      5.09185510222857     10.66760055772392
  C   4.01467842344322      3.61921628967713     10.29824951261254
  H   4.78070630885458      4.15724881636469     10.85567910741707
  C   4.32045448314917      2.36489307362071      9.70927870105459
  H   5.31548446514804      1.93787375025207      9.82764587062324
  C   3.35273762663613      1.66960617807381      9.00070235238548
  H   3.58384722195928      0.69365949744469      8.57431221884149
  C   2.04849838303646      2.21246297732686      8.83023149770890
  C   3.68174277708487     -3.75992046571534      7.39248486588242
  C   3.46208551938649     -5.13774122585323      7.21382730084997
  H   3.79622350738034     -5.60284398490614      6.29212773013030
  C   2.82443998299398     -5.87098729093572      8.21710271777091
  H   2.65944614798400     -6.93781903674256      8.07053572434580
  C   2.39311007313230     -5.24866846522128      9.39729528412319
  H   1.89331065453676     -5.82517489870525     10.17420533700761
  C   2.60828743807516     -3.87421762159812      9.56154808261176
  H   2.27444392299868     -3.37385195264037     10.46980702931726
  C   3.25171220509273     -3.12244184511671      8.57201917716983
  H   3.42088902503105     -2.05980098307197      8.69773670212669
  C   6.63185418730745     -0.13794092585749      3.43625308247335
  C   6.37642223835207      0.46016126979568      2.18933988642005
  H   5.38163798220342      0.84425578912216      1.97454670906466
  C   7.39152880800120      0.54950748504002      1.23238555476004
  H   7.18332293222427      1.00419580861782      0.26491102729610
  C   8.67339534952897      0.05855164516520      1.51757712487984
  H   9.46484421791953      0.13490693251806      0.77324419405534
  C   8.93476205997797     -0.53139725542568      2.76159497589567
  H   9.93023586735915     -0.91080471177047      2.98837167865603
  C   7.91521366107933     -0.63796316521109      3.71402609874665
  H   8.10646669457071     -1.10086717690756      4.68127934926279
  C   5.51227004918874      2.15541758661940      4.59065095141254
  C   6.70160139621581      2.56093112173865      5.18929484588200
  H   7.25075821240065      1.84930129419996      5.80308048722536
  C   7.18024340598407      3.88321256023607      5.02564834740161
  H   8.11619095069380      4.17225580042440      5.50258162017362
  C   6.46670623217359      4.80535307843329      4.27900976166134
  H   6.82910799418501      5.82650362057484      4.16065269993233
  C   5.25143229778055      4.42552455065724      3.64203092720576
  C   4.48365213883443      5.34375846925123      2.86888729345903
  H   4.84750816772604      6.36594590827965      2.75880022374187
  C   3.30624359973382      4.94845557071218      2.25893788108294
  H   2.73280059971302      5.66148365442756      1.66746210232526
  C   2.84353959684156      3.61285477734666      2.39376293775457
  H   1.91442372617747      3.31152610853887      1.91209642209569
  C   3.56137118152823      2.69602057005100      3.14059251864059
  H   3.19748338952014      1.67959644508090      3.27812382854991
  C   4.77158672031237      3.07774339576544      3.78134213746093
  C   3.62500430669866      3.71007985570969      6.51312854899203
  H   4.64648790795486      3.49027252921361      6.84677839301800
  C   4.16939670338276      5.99099798767020      7.18125979403855
  H   5.13079427573983      5.51665130764238      7.40030485450035
  H   3.76167774729133      6.42496262628374      8.10430649531830
  H   4.32547346372233      6.78749042773330      6.44096057055813
  C   1.91372228812166      5.42239117121108      6.24347770768162
  H   1.99291781726112      6.13900271593144      5.41490690349411
  H   1.40469756105920      5.89140815711723      7.09484467333266
  H   1.35868623130881      4.53906070752436      5.92293138238636
