116
Coordinates from ORCA-job BEQDEH-oxo_0_6_tpss_d4_lanl2dz_631gpol_Co2.opt
  Co  2.73318940320579      1.31574225261667      5.40517107400958
  O   2.18306068024930     -0.24949568828169      4.22455905443024
  O   3.82592351785891     -0.12003440207655      6.68969960101869
  O   3.57621443516630      2.77488599417098      6.71130523637990
  O   1.85496581243181      2.56124890582331      4.58848027543427
  N   1.89336311092698     -2.58196623879907      4.28258651442368
  N   1.37784039174595     -3.53557366738969      5.13932760967315
  N   1.20910333549101      0.81870436981788      6.78200824755365
  N   4.53788454027633     -2.35724338910893      6.42201288974179
  N   5.19210539043770     -3.13472686526653      5.46015751868287
  N   4.53014031509493      1.31945419563784      4.28387852518411
  N   5.09019686547340      3.46340611466063      8.27454175310907
  C   1.77325930986998     -1.30382473589530      4.81368045798691
  C   1.10166955417809     -1.46684335750373      6.07173756089826
  C   0.88483472133876     -2.87342656731053      6.19067800016666
  C   0.26331216362554     -3.66565115864837      7.30068070531339
  H   0.36517514161133     -4.73144787413104      7.06984777525170
  H   -0.80013859582413     -3.42267423301849      7.42471540570429
  H   0.76420964464721     -3.45990875039899      8.25419008974098
  C   0.70465592769350     -0.39103885006694      6.92808752952764
  C   4.42832621466646     -1.03188938726304      6.02929358776561
  C   5.10667790079059     -0.95687446056776      4.76585699725345
  C   5.54835213537303     -2.30015425061921      4.49433720180023
  C   6.25973335027200     -2.85650520292611      3.29714994894529
  H   7.31471687188175     -2.55265244393666      3.27197230034085
  H   5.79398784178390     -2.50767726270705      2.36838831941742
  H   6.20545213337345     -3.94973603400520      3.33353387834775
  C   5.28841066924021      0.25450409342586      4.04173480937265
  C   2.53521982402407     -2.98578381701616      3.08535930400657
  C   2.88471460026919     -4.33921263911628      2.93558870667450
  H   2.67081868330263     -5.02787920762923      3.74658630660429
  C   3.49775558198881     -4.76459841801384      1.75548271904892
  H   3.76700971732916     -5.81414761310492      1.64529550766192
  C   3.77272767676233     -3.85545984323226      0.72349495717289
  H   4.25409976294788     -4.19285354008604     -0.19295018778608
  C   3.42768760021735     -2.50794798578343      0.88733205644844
  H   3.63715199179554     -1.78939763819773      0.09593593686632
  C   2.80792622577736     -2.06166554164704      2.06011824825473
  H   2.53795831238303     -1.01980725185612      2.18452737445634
  C   -0.35612252661352     -0.66258801445084      7.95026438015813
  C   -1.69144269658267     -0.78336565556448      7.52933122425607
  H   -1.93071330993158     -0.67816713771793      6.47212608329640
  C   -2.70221817170143     -1.03710516461327      8.46312313411546
  H   -3.73593691431183     -1.12233763379978      8.13113990472995
  C   -2.38326717956145     -1.18600443495363      9.81990237063174
  H   -3.16949326203976     -1.38898153769945     10.54565660693335
  C   -1.05128954142814     -1.07659406715378     10.23898116617236
  H   -0.79708695541076     -1.19757321685878     11.29102138962578
  C   -0.03946513950917     -0.81262751097868      9.30943155133523
  H   0.99470062955314     -0.73701918254369      9.63180748741383
  C   0.72646815783755      1.89187785865308      7.58473418461974
  C   -0.29898000215232      2.70339586524575      7.12710059047356
  H   -0.73941638517572      2.49947231232871      6.15452940004205
  C   -0.74579895157141      3.79558096221225      7.90934818700286
  H   -1.55706907712064      4.41736891020860      7.53383206867304
  C   -0.16910872182178      4.07295629774253      9.13619249297568
  H   -0.52288500601473      4.90799946596634      9.74043630546014
  C   0.90082760133558      3.27219441229122      9.62323307645408
  C   1.52786952493666      3.52258816345128     10.87793098669530
  H   1.16017257697555      4.34773583623955     11.48848593083920
  C   2.57961860880608      2.73850346535390     11.32051835666066
  H   3.04177715106086      2.93989578922871     12.28648149590583
  C   3.05753619896967      1.66857049657331     10.51728725198002
  H   3.89345339265482      1.06227658118809     10.86643627339189
  C   2.46458019412863      1.39295417547392      9.29775740252976
  H   2.83677158750086      0.59777932584353      8.65609689955463
  C   1.37285205626621      2.17230106937182      8.82915422115460
  C   4.01115092888412     -2.98961871604306      7.56866550350729
  C   3.83797557758201     -4.38529848844717      7.55984158142384
  H   4.10420114080322     -4.93931908515338      6.66552144915851
  C   3.33305163421638     -5.02315252920796      8.69557584934928
  H   3.20080173467448     -6.10422976754125      8.68230171850342
  C   2.99001117756206     -4.28811479327239      9.83995900264677
  H   2.59296803170225     -4.79192852916657     10.71972125616884
  C   3.16830400532773     -2.89822281206436      9.83897036505300
  H   2.92019511657785     -2.31343038938178     10.72443771697525
  C   3.68132863477454     -2.24349259116931      8.71387544867763
  H   3.84616546549508     -1.17309704800930      8.71445108415109
  C   6.37225396086777      0.31672619749504      3.01565991685886
  C   6.07463042314328      0.60839212848887      1.67278989929667
  H   5.04253666263595      0.78034214962003      1.37596543399003
  C   7.10101589573396      0.67126807117657      0.72547390121101
  H   6.86192045615247      0.89106255920937     -0.31396283566357
  C   8.43165382630464      0.45734336091292      1.11102841369997
  H   9.22975658076820      0.51436687703024      0.37215378620684
  C   8.73327298001456      0.16878822398855      2.44884654410414
  H   9.76579530598870      0.00324657835022      2.75357834034299
  C   7.70618312710830      0.08912616153265      3.39540125014018
  H   7.92909747692523     -0.14364122454415      4.43597727921656
  C   4.91156750534439      2.57919838805427      3.74673229759747
  C   5.99216193264993      3.25931868882950      4.29434900876865
  H   6.56084161573723      2.78820033220647      5.09411694298234
  C   6.34538627700662      4.54701454222371      3.82885730146337
  H   7.19383072567098      5.06288611231016      4.27704461284821
  C   5.62349102519159      5.14572029652469      2.81203268101545
  H   5.89269854019713      6.13721250936209      2.44838998230415
  C   4.52232228662442      4.47000475677908      2.21499657354644
  C   3.78400321216172      5.04125279931445      1.14022830979906
  H   4.06489154859763      6.03199116222759      0.78219565240446
  C   2.73761885268810      4.35310367769994      0.55225022171670
  H   2.18385347028737      4.80207205217924     -0.27148714651205
  C   2.38203446088547      3.06082799289105      1.01658575891430
  H   1.55382173321604      2.52837528209738      0.55100859975922
  C   3.07149520628621      2.47866050317672      2.06596930296682
  H   2.79476835304704      1.49494812893471      2.43640672570437
  C   4.15000039170338      3.16562644293105      2.68852330723884
  C   4.60604434650809      2.57177144480396      7.38660389923251
  H   5.17396589600879      1.63615367684423      7.29668386934628
  C   6.22629205699551      3.13535232053777      9.12625896275776
  H   6.65240266084636      2.17830525161992      8.80620111205148
  H   5.90322964359023      3.05159889614454     10.17401703155998
  H   6.99642208231306      3.91520884419481      9.05141974614470
  C   4.36214879523857      4.70345902979644      8.54779034849796
  H   5.04675628906693      5.55774160333905      8.46278623249678
  H   3.93842221313074      4.66898193625707      9.56022008498908
  H   3.55743213700675      4.78976195332868      7.81466145542131
