116
Coordinates from ORCA-job BEQDEH-oxo_0_2_tpss_d4_lanl2dz_631gpol_Co2.opt
  Co  2.93095161677502      1.07300701755826      5.47356113106760
  O   2.48154189192972     -0.36370546654410      4.33889127838888
  O   3.93161129438956     -0.19138215714837      6.69790734273945
  O   3.58152996674401      2.62157509349881      6.53029937792856
  O   1.95461620428429      2.17572730638881      4.56285082924144
  N   1.91323963147636     -2.63228591233162      4.30837885864433
  N   1.15956177351426     -3.54035391015699      5.05488121855650
  N   1.44465835030354      0.79774769169859      6.71388440730015
  N   4.77067532459339     -2.37784467421819      6.41580021391373
  N   5.50807007121206     -3.10924410060897      5.48152534983977
  N   4.50755815424621      1.26904338100396      4.30843140906631
  N   4.70821422633517      3.50965556517602      8.29381460280605
  C   1.89254209967089     -1.37934538073222      4.87336846680451
  C   1.10783825886247     -1.48203105050797      6.05514408208160
  C   0.67232862515417     -2.85514743527897      6.08045569106394
  C   -0.20643621432984     -3.58363284730665      7.05331790591802
  H   -0.39626916729875     -4.58891881959850      6.66014999369128
  H   -1.16303918668776     -3.06601803818939      7.20004837155017
  H   0.27424844587714     -3.67661819732702      8.03510742918937
  C   0.82645349068536     -0.36400563236468      6.88367782220687
  C   4.62026317049144     -1.06133560309369      6.03934130095150
  C   5.33992403282399     -0.92374988581814      4.82159427053319
  C   5.86345549725238     -2.23605695658506      4.54590958901951
  C   6.67026176844175     -2.72685637513995      3.38093697512635
  H   7.70348665537777     -2.35527517196092      3.41482400663207
  H   6.23159075508454     -2.39560130210266      2.43285534062795
  H   6.68508772219736     -3.82207479562445      3.40077681119325
  C   5.38934706734251      0.29847682215507      4.09383879391325
  C   2.61875419428608     -3.08138492243320      3.16660425849126
  C   2.81299694779526     -4.46364919817518      3.00058788625574
  H   2.40759356111839     -5.14193300260624      3.74504346212390
  C   3.51275267762927     -4.93284381431030      1.88634799978882
  H   3.66198014756027     -6.00509393810865      1.76597282594476
  C   4.02240641055907     -4.04045227239699      0.93281465779793
  H   4.56852411614669     -4.41202797083398      0.06718645284188
  C   3.81788078800055     -2.66543512850915      1.10483612990347
  H   4.20276618914077     -1.95813576129625      0.37087583721017
  C   3.11741688859540     -2.17574122930131      2.21222273851743
  H   2.95897002283342     -1.11234376153313      2.34228704603285
  C   -0.21419104364704     -0.47605713257940      7.95402778890053
  C   -1.46209175234634      0.14781066472107      7.78947124446293
  H   -1.67158258404501      0.69456620155330      6.87225900101406
  C   -2.42593723554536      0.06202915026359      8.79996321514779
  H   -3.39324137211907      0.54365738017071      8.66497822607720
  C   -2.14626613530533     -0.63801293954518      9.98164784958356
  H   -2.89607452830336     -0.69921117416578     10.76922022914078
  C   -0.90206756028430     -1.25978309576136     10.14620994582424
  H   -0.67909617289195     -1.80563601971616     11.06200215524632
  C   0.06169579939226     -1.18264366101808      9.13504244127244
  H   1.02660427250239     -1.66898668051827      9.25498314671735
  C   1.11393910221835      1.92053629878653      7.52751687284569
  C   0.40486321172917      2.97753166097200      6.97813638877131
  H   0.11515326411986      2.92186796107631      5.93221271885603
  C   0.09449490598102      4.11004932416947      7.76711294339280
  H   -0.47690470937045      4.92418993634981      7.32369615330381
  C   0.50228919968627      4.18711324044580      9.08800828708864
  H   0.25037368995672      5.05455865003013      9.69816951371252
  C   1.26984854349673      3.13769827893465      9.66619368213887
  C   1.74779280018070      3.19784167031546     11.00699531439517
  H   1.48112833072531      4.06092575278786     11.61775464650218
  C   2.53578812644135      2.18698973172599     11.52953979863781
  H   2.88956430845304      2.24645242401649     12.55826608477013
  C   2.89122736382921      1.07312918299490     10.72385439575966
  H   3.52964371651235      0.29170364609027     11.13567321166105
  C   2.42799247276452      0.97314614419324      9.42343951336163
  H   2.71458741436746      0.13778949484634      8.78981746497926
  C   1.59794082022017      1.98617844539148      8.87097609742336
  C   4.11876438640221     -3.04325194555482      7.47673808061196
  C   3.67308914593286     -4.36123244395905      7.28901251536384
  H   3.84656147969215     -4.84278651965782      6.33170045906880
  C   3.00818786517147     -5.01389524233230      8.33027826968709
  H   2.65474048650272     -6.03287464901006      8.18047589851552
  C   2.78031464006806     -4.36397017546715      9.55274549463116
  H   2.25813887979528     -4.87786398515177     10.35836704347846
  C   3.24141346447545     -3.05261024350389      9.73373427982178
  H   3.08964194390398     -2.54562307812069     10.68650281859889
  C   3.91728303825794     -2.38943593829420      8.70296854329386
  H   4.30281775162580     -1.38461279670023      8.84240820796080
  C   6.46735476853793      0.48002848412717      3.07804699099248
  C   6.15760563092319      0.73479047731089      1.73028753708150
  H   5.11819747164048      0.81654926538138      1.42149085018635
  C   7.18392784841237      0.87687454750449      0.79149700208012
  H   6.93618573696982      1.06721820655172     -0.25166031622400
  C   8.52431677010045      0.77872642688126      1.18986639906643
  H   9.32134032309157      0.89613459368422      0.45701287687577
  C   8.83702376170160      0.52596507569008      2.53229192702751
  H   9.87683917170289      0.44805989383295      2.84685366714874
  C   7.81205439568749      0.36640593156401      3.47094673814978
  H   8.04344566514407      0.15710189561842      4.51440719227252
  C   4.69698597145272      2.56052845057456      3.73849669553765
  C   5.65864994090381      3.41276962884445      4.25894866099306
  H   6.28206478530099      3.06936386890322      5.08215540725123
  C   5.82537264245857      4.71333372277096      3.72601749086966
  H   6.58844134830521      5.36828375887176      4.14507566352282
  C   5.03113952446230      5.14811912696163      2.68034433907711
  H   5.15895414712103      6.14806011909514      2.26585867568167
  C   4.04149038258676      4.29318540982606      2.11781649828897
  C   3.23632506128254      4.69432143013774      1.01497942680431
  H   3.37356679624548      5.69461854169539      0.60356274232239
  C   2.30498317454025      3.82988664520804      0.46584346746543
  H   1.70006814580014      4.14887239792600     -0.38222353784523
  C   2.13555495967422      2.52703640216272      0.99905420885759
  H   1.39649716834366      1.85674746227539      0.56248409757807
  C   2.89301609305392      2.10529369824140      2.07893285475531
  H   2.75066640172231      1.11853981118142      2.51021472116223
  C   3.85870215901400      2.97531405979045      2.65902818522862
  C   4.36029773464828      2.47906124732172      7.50641901733510
  H   4.78497432760200      1.50069206605126      7.75417865465974
  C   5.53359892964623      3.30154605936429      9.47992910413832
  H   5.86800915132169      2.25961838866473      9.50724589725075
  H   4.94844254177374      3.51016664003293     10.38481906724436
  H   6.41035203955993      3.96283930094716      9.45078117709233
  C   4.13804959261560      4.84030793442888      8.06984925661024
  H   4.94752426226965      5.57996934772456      8.01731405466349
  H   3.45923146657160      5.09613189971515      8.89340994695861
  H   3.58316890684934      4.81835209902050      7.12977125491340
