117
Coordinates from ORCA-job BEQDEH-OH_0_3_tpss_d4_lanl2dz_631gpol_Co2.opt
  Co  2.88585042437347      1.12082040147947      5.64154511496628
  O   2.30149110461541     -0.36696679467181      4.30371371899681
  O   3.81657298700578     -0.25426485126864      6.62713912873276
  O   3.82572754242110      2.67913167053326      6.94418371568305
  O   2.02450579406927      2.47853472799749      4.84238833796763
  N   1.75933508217603     -2.65267184546201      4.38576709324069
  N   1.03484345774071     -3.52998452165145      5.19554984661006
  N   1.38590684666762      0.80898281416719      6.90117805147686
  N   4.72299564522725     -2.40045931253895      6.24211881512645
  N   5.56116275503607     -3.03307452467533      5.32652636197285
  N   4.42112898173313      1.36146501807720      4.36015180229848
  N   5.40168998173545      3.27257897312619      8.49638602645962
  C   1.72143973860898     -1.35397203231592      4.86589689050916
  C   0.92060447626565     -1.41003709487823      6.05454638767211
  C   0.52197557560161     -2.79213121093067      6.16785992043425
  C   -0.31311219901610     -3.47575371521790      7.21024695229602
  H   -0.26103035616381     -4.55726524588589      7.04291570534156
  H   -1.36310477849604     -3.15630475123685      7.16641768026809
  H   0.05474094641377     -3.25372086151114      8.21890527889600
  C   0.66679712815590     -0.31531171023050      6.91634112083665
  C   4.54357504539019     -1.07307189663772      5.93018912280957
  C   5.30615277326254     -0.83385885277380      4.76076207334545
  C   5.91995679294009     -2.09761570191317      4.45440571038078
  C   6.83979365507343     -2.48140922943028      3.33380749095367
  H   7.83223945271041     -2.02491885706245      3.45006425197283
  H   6.44007373702183     -2.15639449793404      2.36677086604839
  H   6.94552733743555     -3.57158018726160      3.32588303888145
  C   5.31637130802190      0.42128153352286      4.08887052643828
  C   2.56263430538720     -3.17102413498168      3.34445862261532
  C   2.84009532265581     -4.54940697918564      3.32933587457561
  H   2.41203869329334     -5.17521971132976      4.10633578505624
  C   3.65495624418979     -5.07877613474952      2.32583156765667
  H   3.86997846512356     -6.14679260360518      2.32379147195012
  C   4.19639990004317     -4.25099658502222      1.33258152541788
  H   4.83313354102720     -4.66845070702844      0.55397397847172
  C   3.90405673326674     -2.88104891936835      1.35031680386744
  H   4.30941464203859     -2.22575584360594      0.57950301976520
  C   3.08965405776478     -2.33100444749001      2.34543647284479
  H   2.86536891978072     -1.27163146136431      2.35997430844529
  C   -0.48306998967904     -0.42562024460535      7.86863926054093
  C   -1.78628651261573     -0.46274604970410      7.34345311688740
  H   -1.92353979369606     -0.42096721300285      6.26407561716447
  C   -2.88940171019767     -0.55070316857031      8.19952432774413
  H   -3.89629591463680     -0.56998301764843      7.78490226756543
  C   -2.69678625390403     -0.62122047091034      9.58585139586360
  H   -3.55445370828980     -0.69665392826165     10.25280595657882
  C   -1.39811759931289     -0.59922136846814     10.11171542185208
  H   -1.24333436738128     -0.66220764162879     11.18794767059974
  C   -0.29400866582601     -0.49652938089775      9.25868859707476
  H   0.71298206539680     -0.48247685126502      9.66804923488668
  C   0.98245439541926      1.91677119835307      7.69725691653545
  C   -0.00308396022914      2.78464941086857      7.24359028520290
  H   -0.49466051191945      2.57437252689912      6.29606961463396
  C   -0.36621741290422      3.91978496185575      8.01062609989560
  H   -1.14384463362850      4.58488597086932      7.63835766537766
  C   0.25148976097993      4.18062846617521      9.22021798276530
  H   -0.03247864349297      5.05085393737233      9.81146781344062
  C   1.26057534702062      3.30833789342812      9.71709526044079
  C   1.90577447375990      3.53035629474739     10.96761681073914
  H   1.61435718959827      4.39877387575112     11.55892238618311
  C   2.87580531695206      2.65978523843873     11.43403165236023
  H   3.35021409193938      2.83715235576150     12.39862060853830
  C   3.24633235241509      1.52547459870756     10.66313477763767
  H   4.00783145266841      0.84227378744264     11.03840669707756
  C   2.64139032852677      1.28399742315330      9.44225084861479
  H   2.93125573423060      0.43594783754973      8.82563299667024
  C   1.64072485928686      2.16044729111874      8.94356706139383
  C   4.03572355838611     -3.17765239049840      7.20537657620394
  C   3.88168597091559     -4.55387620037244      6.97276612148082
  H   4.30205453038275     -4.98069307317788      6.06765931824213
  C   3.18317481511673     -5.33087110363934      7.89939090523554
  H   3.05773670850719     -6.39647149365403      7.71302709656399
  C   2.63502155075881     -4.75006439897070      9.05166232133377
  H   2.08486138441347     -5.36030598722393      9.76616104012825
  C   2.80059743759325     -3.37716113537973      9.27580228887626
  H   2.38638207628068     -2.91483139007531     10.17133781289903
  C   3.50448798990520     -2.58551170010173      8.36290345873173
  H   3.64734059400785     -1.52594048645424      8.53579149629105
  C   6.36870040353009      0.65485723547892      3.05217626406048
  C   6.02268004314461      0.76925374978119      1.69481780242153
  H   4.97822451027317      0.70879693621736      1.39830550631419
  C   7.02013851330225      0.96066432309751      0.73319314353642
  H   6.74511430605606      1.04509453520620     -0.31704631504544
  C   8.36485824933722      1.04825955890037      1.11788837153151
  H   9.13856040483686      1.20296866475288      0.36723275511139
  C   8.71241490023506      0.93365431445609      2.47053708439177
  H   9.75610845184222      0.99974648195000      2.77499701673031
  C   7.71840488863760      0.72720790717931      3.43343913754678
  H   7.98192203310009      0.62422216203342      4.48537237086156
  C   4.57644134268363      2.64226102961968      3.74755874230551
  C   5.51312452645629      3.53634337026261      4.24097586000445
  H   6.11283029081747      3.25589312588920      5.10401573127075
  C   5.70355517370291      4.79169452465479      3.61588038901050
  H   6.44810183651726      5.47946055048951      4.01520023530983
  C   4.96783043841707      5.13459993050719      2.49595572034958
  H   5.12410226089892      6.09356540295235      2.00191403078094
  C   4.00042919104924      4.23694377585504      1.96353567619295
  C   3.24835006309601      4.54633796851453      0.79407181564013
  H   3.41742714725843      5.50482061040644      0.30243017075752
  C   2.32650605466451      3.64944908556719      0.28650414308005
  H   1.76170738964928      3.89700315982365     -0.61170239721455
  C   2.10423916976167      2.40732737187299      0.93813160475073
  H   1.35983001141969      1.71718003024833      0.54276752424694
  C   2.81052320000995      2.07603093797717      2.08001909961377
  H   2.61326011429448      1.14740360659722      2.61083155111691
  C   3.77787715188490      2.97398185558135      2.60962211723525
  C   4.80924016419885      2.39674061486261      7.65322544800608
  H   5.26836804322364      1.39723355606631      7.63006369260370
  C   6.46834627779937      2.84917577866196      9.39504911025851
  H   6.77693780530884      1.83056044632460      9.13525784518330
  H   6.11662691322169      2.86163225058535     10.43702395705922
  H   7.33335028538905      3.51997650162779      9.30251447304351
  C   4.83609255397508      4.60823330304146      8.68740954713861
  H   5.62350488843577      5.36432866799619      8.56951321435714
  H   4.39848666766554      4.68643248115975      9.69164227786034
  H   4.05739569970426      4.75315899252005      7.93549098286948
  H   1.71593226685370      3.05685091161546      5.57604705817241
