121
Coordinates from ORCA-job BEQDEH-CH3OH_0_4_tpss_d4_lanl2dz_631gpol_Co2.opt
  Co  2.99433282117608      1.14985460094628      5.57633723761209
  O   2.29995816109104     -0.26236160767359      4.29053391614914
  O   3.98954740296829     -0.18232452531410      6.80338337903234
  O   3.55561364213150      2.81223703248322      6.76617781248221
  O   1.86485563896310      2.65329066091415      4.43928664242976
  N   1.96391375231339     -2.58994236712068      4.26656279273825
  N   1.35454736086655     -3.56893729883259      5.05292683901169
  N   1.23018619790204      0.78031154863993      6.73829309112091
  N   4.66846859381957     -2.42146696798033      6.50946609196305
  N   5.29498425743251     -3.21666388005700      5.54832668779896
  N   4.68289931062039      1.23747740468886      4.32765342019961
  N   4.59852286131998      3.61176143911918      8.63703077784665
  C   1.85280858550404     -1.33407858283362      4.83220969628138
  C   1.13972637298735     -1.52331511578120      6.06342525552779
  C   0.84814785516438     -2.93572773866978      6.10161091374307
  C   0.08554081627333     -3.75527490573577      7.10111493236986
  H   -0.02480482528767     -4.76894951164144      6.69854396163646
  H   -0.90890313649299     -3.33294666592272      7.29499351620469
  H   0.61176595024401     -3.81672790570604      8.06156055432882
  C   0.78238136847523     -0.46285938813384      6.93748460313772
  C   4.58257629814657     -1.09829589310912      6.11822932350993
  C   5.25525989441803     -1.03097020351979      4.86072203075685
  C   5.66512594488545     -2.38360566177786      4.58405381661042
  C   6.36125055688131     -2.94870808345669      3.38199568031590
  H   7.40707879440633     -2.61830962491159      3.32344221844732
  H   5.86320193432271     -2.63560370818426      2.45685061881499
  H   6.33559598604595     -4.04194061496387      3.44432685005619
  C   5.43832883662283      0.16796860687729      4.10952693143076
  C   2.62342891398160     -2.97292874938639      3.07644702887896
  C   2.97396881396124     -4.32348374269933      2.90277889524516
  H   2.73959426827367     -5.02954816141985      3.69301598188230
  C   3.60681226336446     -4.72637368126512      1.72446188608713
  H   3.87519821169012     -5.77452301314050      1.59777999975310
  C   3.90269825569724     -3.79835208657576      0.71555340313896
  H   4.39914310032066     -4.11854997859831     -0.19919798755315
  C   3.55433340576650     -2.45405499109704      0.90047433855933
  H   3.77383911183910     -1.71993209221873      0.12572701589699
  C   2.91404388162799     -2.03286262515072      2.07109238509298
  H   2.63241290408367     -0.99722434577411      2.21179600993195
  C   -0.14773821044128     -0.73137792749738      8.08111448280248
  C   -1.47165052029959     -0.26249197166019      8.02988782262130
  H   -1.81933029753758      0.26467998500289      7.14324088026686
  C   -2.33844178228863     -0.47874244022628      9.10678853005401
  H   -3.36470091278992     -0.11743882016021      9.05552146203885
  C   -1.88671484414239     -1.15681091295756     10.24710047254730
  H   -2.56089690057928     -1.32154508176152     11.08660781843522
  C   -0.56722716522698     -1.62338051077045     10.30172662516729
  H   -0.20848177993027     -2.15348999689673     11.18310145574568
  C   0.29905395949100     -1.41526720387074      9.22323781692230
  H   1.32045972126002     -1.78465411915430      9.26306919448341
  C   0.86707738518397      1.80776595432222      7.64639215717289
  C   -0.03028356785720      2.79588506343929      7.25990042882919
  H   -0.52707373198544      2.71072253938028      6.29312129751671
  C   -0.34048943867322      3.87969510039702      8.11641865013422
  H   -1.05822517519405      4.62996821560631      7.78658610017429
  C   0.24461573138327      3.97925171617374      9.36610410499299
  H   -0.00029446622975      4.80629075346507     10.03212180265291
  C   1.17000456570385      2.98984779477637      9.80170571761613
  C   1.79582878293538      3.05445426526932     11.08006678881988
  H   1.53518947490189      3.87644702981933     11.74769869617395
  C   2.70569966168225      2.09056110490197     11.47846652162284
  H   3.16322037813309      2.14730255530752     12.46594654150121
  C   3.04701920628640      1.02807752823067     10.60167875896748
  H   3.77837872119174      0.28281429166319     10.91388159826437
  C   2.45749626061881      0.93487620239264      9.35302263897481
  H   2.74661535564376      0.15191546927929      8.65697808081633
  C   1.49895393079607      1.89477849227878      8.93169656281344
  C   4.13006166296172     -3.02396883782416      7.66465379532515
  C   3.69698414915936     -4.35923671167963      7.60122746095284
  H   3.77036137979535     -4.88788324582930      6.65615089647290
  C   3.17419702766608     -4.96645395154361      8.74579938305303
  H   2.83340548589204     -5.99950765171079      8.69197318890875
  C   3.07271867852005     -4.25578983150466      9.95175331246745
  H   2.65891811419087     -4.73386847743813     10.83833132062530
  C   3.51862243932454     -2.92815026907967     10.00724017668023
  H   3.45878060454520     -2.36973730256581     10.94121993242599
  C   4.05366207332319     -2.30843564218741      8.87170958668293
  H   4.42353934037991     -1.28907748079935      8.90986620426129
  C   6.54741627854218      0.20292841458189      3.10728762046211
  C   6.29975302671139      0.39544727357285      1.73749163366918
  H   5.27782353051168      0.51008510828313      1.38580431547158
  C   7.36349545713809      0.42372032873346      0.82960580939876
  H   7.16137921088730      0.56417073021880     -0.23134242654984
  C   8.68168607469910      0.27279230572269      1.28027684927195
  H   9.50792847714568      0.30039294206234      0.57107949619962
  C   8.93410398106363      0.08092950118175      2.64546025352264
  H   9.95644583674490     -0.03984067819973      3.00153079409784
  C   7.87051253484995      0.03588983786794      3.55294824111914
  H   8.05419800228453     -0.13005685123171      4.61367078230520
  C   4.98771208639589      2.46819336491704      3.68657700013472
  C   5.93822188388334      3.32512861816091      4.22620853229191
  H   6.48747443527924      3.01065818841992      5.11165540282195
  C   6.19406894939485      4.58430568841739      3.63103970792245
  H   6.94943178356212      5.23592081170982      4.06924926706988
  C   5.50551226709850      4.98326206782880      2.49866393477769
  H   5.70976183150325      5.94820486287486      2.03500122906836
  C   4.52440006513102      4.13183700863237      1.91767735508715
  C   3.80174868173402      4.49711532306058      0.74549441200653
  H   4.01390919575259      5.46025095569461      0.28045913945579
  C   2.85377883746855      3.64885375289281      0.20198750470468
  H   2.31397699322422      3.94074186773343     -0.69826874680262
  C   2.57492042134193      2.39914539949027      0.81623935100923
  H   1.81447185284479      1.74571272982602      0.39004117946049
  C   3.25323565739994      2.01543998887960      1.95865717349367
  H   3.02134300503547      1.08235912121445      2.46560884480230
  C   4.24686701907186      2.85962777319313      2.52562057291272
  C   4.36049867036998      2.66046134797589      7.71310464246558
  H   4.91442751139054      1.72126382344315      7.84305047372193
  C   5.56573054141118      3.39918470958567      9.70827312011654
  H   5.98446434746000      2.39158341805388      9.61778849131727
  H   5.06854493239769      3.49028097341525     10.68232693681954
  H   6.37934779051447      4.13557828764264      9.64303611763981
  C   3.87721140695818      4.88385340404242      8.59493516449327
  H   4.54003397861712      5.69018456296735      8.24964153647774
  H   3.50643620472485      5.11968240694544      9.59886497795967
  H   3.03617580327596      4.77284996768051      7.90780110436828
  C   1.96441899101384      4.08238038120974      4.62813116558639
  H   1.43497509906807      4.59714833490887      3.81524971126536
  H   1.56247161965002      4.37752626184855      5.60468741451839
  H   3.02880653954801      4.31685285556487      4.58136698269054
  H   0.95424952529767      2.36053957937110      4.64374011691859
