116
Coordinates from ORCA-job BEQDEH-oxo_0_4_tpss_d4_lanl2dz_631gpol_Co2.opt
  Co  2.90332725367901      1.12973272154448      5.43124374553589
  O   2.46357988263516     -0.51708979518136      4.27189326336984
  O   3.91281041397787     -0.10733813625587      6.57942149685636
  O   3.75261608010767      2.74984467312606      6.66943702637488
  O   2.00399384780733      2.23029165333670      4.61027607734696
  N   1.80049012473314     -2.76201113952715      4.35799736979361
  N   0.96815908524581     -3.58522462422590      5.11833064200914
  N   1.39737105771432      0.80599851427062      6.70743399994390
  N   4.78051182574387     -2.27729648728593      6.28032002309278
  N   5.57552982514167     -2.98155971002791      5.37944486349781
  N   4.51540172499031      1.35659715831064      4.20399336381573
  N   4.78057808510006      3.47672995937730      8.57678890339892
  C   1.82194573649295     -1.46630016046834      4.84113715531424
  C   0.99595381591867     -1.47539740655348      6.01411336653870
  C   0.48293958925791     -2.82294190978517      6.08628803151281
  C   -0.47466087842464     -3.46489894556057      7.04747851810214
  H   -0.71030025147077     -4.46800171731010      6.67339423066967
  H   -1.40297202537309     -2.88795879014268      7.14558148266589
  H   -0.03773354438021     -3.55881480872228      8.04945014034924
  C   0.75583051341613     -0.35025120170905      6.84513392310389
  C   4.64347484626801     -0.95684740565491      5.92668833990452
  C   5.42350760256758     -0.78683491349171      4.75516193816082
  C   5.97517739840282     -2.08571645547165      4.48162760442066
  C   6.86104271954194     -2.53943568027604      3.35932514581865
  H   7.89958015629548     -2.21127370372723      3.50574578379703
  H   6.52311917189396     -2.13352876381406      2.39915760503543
  H   6.83861534020173     -3.63347688163037      3.31176393363756
  C   5.45444466550675      0.43708456788229      4.02748788868613
  C   2.54290553469680     -3.32526263978556      3.29398198874156
  C   2.57011291873667     -4.72626641624648      3.16514229831841
  H   2.00565444435785     -5.32631433979178      3.87239740314432
  C   3.30908059546006     -5.31257885851373      2.13455294252742
  H   3.32644157639652     -6.39820069651475      2.04538513866833
  C   4.02096777786340     -4.52040614895315      1.22358146190771
  H   4.59412775083699     -4.98219575881007      0.42105762733078
  C   3.97951430063614     -3.12653108356104      1.35516839640797
  H   4.51940370342009     -2.49527571076721      0.64962020521478
  C   3.24928841649772     -2.51843920598386      2.38123376048738
  H   3.22552062682522     -1.44106663749304      2.48708590753552
  C   -0.28067645833335     -0.44338820115278      7.92519036689568
  C   -1.53036673878257      0.17297315360445      7.74722101476232
  H   -1.74365741880686      0.69229090427306      6.81481791792133
  C   -2.49182690944997      0.11547974418321      8.76210999286651
  H   -3.46049692623630      0.59106022338113      8.61560238264132
  C   -2.20747407835117     -0.54845024950738      9.96328169574580
  H   -2.95485054446220     -0.58790449757969     10.75456126452155
  C   -0.96119254389427     -1.16189820934060     10.14243264088481
  H   -0.73480922384681     -1.68014860227073     11.07335428926792
  C   -0.00062555195834     -1.11306496595370      9.12644055842889
  H   0.96332403068002     -1.59840799304988      9.25633271904553
  C   1.11168265959950      1.90634932938026      7.56265153458768
  C   0.38801503224485      2.98622953026242      7.07775085991086
  H   0.03494070916369      2.96048371473124      6.05048249140282
  C   0.12897502698862      4.10260937904595      7.90732361548835
  H   -0.45286258218129      4.93363525863069      7.51119281040024
  C   0.59799026836003      4.14164807192258      9.20901670906712
  H   0.38820642336532      4.99731190696249      9.85080615728789
  C   1.37099766227377      3.06533772494108      9.72604820515328
  C   1.90283175559866      3.08131766396655     11.04751771345340
  H   1.67677969654258      3.93248296215619     11.69066888822701
  C   2.68615307610579      2.04019452606568     11.51427222784550
  H   3.07866638274344      2.06481626724253     12.53040737361474
  C   2.98608510934737      0.94047081621530     10.66795052745066
  H   3.62156769059280      0.13494666348750     11.03566917975401
  C   2.47468714032539      0.88754208243224      9.38329694396920
  H   2.71993110430406      0.06722780880361      8.71470449647444
  C   1.64812878528525      1.93134500552957      8.88856868960550
  C   4.07836605792973     -2.96710119390552      7.29663080836362
  C   3.55571502224455     -4.23919655762452      7.02302067410457
  H   3.70618042057011     -4.67105666056945      6.03821158919257
  C   2.83635958901100     -4.90768586283839      8.01726460190545
  H   2.41593176305910     -5.88847659593860      7.80220518457483
  C   2.63671548864270     -4.31711081968984      9.27371735919594
  H   2.07225254144604     -4.84317800051984     10.04213491195003
  C   3.17666793618659     -3.05062714222254      9.53945806269890
  H   3.04475826128578     -2.59367393008202     10.51991039384169
  C   3.90506949902531     -2.37310619534867      8.55560950576328
  H   4.35302512822762     -1.40448908238866      8.75644253999527
  C   6.56610262740683      0.65688914003480      3.05620330401425
  C   6.30514345627752      0.90971184396619      1.69744694951839
  H   5.27731689908395      0.96210162826681      1.34588115791770
  C   7.36539464723951      1.08410548658782      0.80293979134965
  H   7.15610022252504      1.27179521255940     -0.24902113705395
  C   8.69040106105448      1.02071374694604      1.25658103707514
  H   9.51350103201319      1.16320304344185      0.55785129431163
  C   8.95413599162715      0.76956510379959      2.60966618824923
  H   9.98176659980796      0.71788525811875      2.96670633241383
  C   7.89599694240418      0.57689874556919      3.50419544317363
  H   8.08960705575071      0.36797204812879      4.55534230928926
  C   4.65732514750375      2.64304866339283      3.61219628759725
  C   5.56698532016407      3.55377818694707      4.12653516125375
  H   6.18264260097319      3.26450242080610      4.97498823788355
  C   5.69115103345628      4.84114135036190      3.55283282021157
  H   6.41472567335656      5.54218880085402      3.96691263484637
  C   4.90645601617827      5.20625679277773      2.47362103262986
  H   5.00337900128630      6.19568238141387      2.02698094130948
  C   3.96289033120599      4.29381106198881      1.92314933766313
  C   3.15983964328906      4.62688091343747      0.79584671981283
  H   3.26553070030166      5.61765264175967      0.35325366097647
  C   2.26749720089711      3.71227709980173      0.26496157058940
  H   1.66198009626622      3.98050897394226     -0.59993385756905
  C   2.13587955469583      2.42294286014884      0.84274037741482
  H   1.42499758719326      1.71308189182699      0.42217170845329
  C   2.89581902945730      2.06504379711929      1.94288532050080
  H   2.78136540036023      1.08718139425585      2.40544738226670
  C   3.82175918935400      2.98841922272674      2.50510009051935
  C   4.47771851404053      2.53157444035408      7.66095047129288
  H   4.90857677204490      1.53898267557811      7.85122593176626
  C   5.63602834402537      3.18044296904409      9.71951014456434
  H   5.93595810102980      2.12793840559578      9.67986432649457
  H   5.08687700918286      3.35561418283846     10.65339805595832
  H   6.53551134793293      3.81283983030450      9.70178243743052
  C   4.22196698972080      4.82326464220390      8.45808395618340
  H   5.02355889036214      5.55190479208165      8.27105685423416
  H   3.70085866916282      5.08638878503518      9.38681123303802
  H   3.51693830780095      4.82027847414315      7.62403260111784
