38
Coordinates from ORCA-job BEBQOP_2_5_tpss_d4_lanl2dz_631gpol_Co3.opt
  Co  5.99496617872661      3.81886069314252      2.81504772490924
  S   6.74822649505425      5.18823471774356      7.16679982006160
  N   7.99952528810776      4.09386796625284      2.08908708413479
  N   6.30015353694214      1.68705338429349      2.67557555731914
  N   3.95140146428110      3.15509059938278      2.85674922647036
  N   5.27780151220181      5.56062127997083      1.82053492190875
  N   6.25015153174009      4.30764455278348      4.55002437977933
  C   8.49627331438100      3.22203391168187      0.96581496965905
  C   8.46574400082907      1.74368714379101      1.35825080327274
  C   7.06443364737668      1.14648243216313      1.49827276026252
  C   4.99675237043864      0.95938778189354      2.85655197148783
  C   4.00960289148101      1.85723175617936      3.59308213292439
  C   3.01319959766735      4.14822352402751      3.47445201960437
  C   2.89364645515966      5.41738094656825      2.62574880124610
  C   4.16232594242163      6.26903036362471      2.55280789821908
  C   6.47344788020152      4.68391015768397      5.68765456605691
  H   8.60834261086017      3.94442043425216      2.90470506789688
  H   8.15416305918845      5.07670545316462      1.83248818099101
  H   9.51894142457428      3.52104152822043      0.70316314352586
  H   7.85476625619278      3.41022769491525      0.09551246194869
  H   9.05083097046201      1.57910800420592      2.27761385598212
  H   8.98248929519972      1.17852118087526      0.57143633855830
  H   7.13399151007585      0.05411351141027      1.60369344318723
  H   6.46202339887368      1.35496459483001      0.60390738819046
  H   6.87074553683236      1.52560129066828      3.51711364318238
  H   4.61637039962262      0.72170178363080      1.85472633548991
  H   5.15347324253234      0.01296417594488      3.38887917776150
  H   4.34299378165230      2.07308952024579      4.61573867402369
  H   3.01902582512034      1.38402705337721      3.64446523617452
  H   3.61057659828131      2.96071729045683      1.90431400273866
  H   2.02449506638194      3.68013529086120      3.58649878769210
  H   3.39670702674468      4.37614838621944      4.47625841743461
  H   2.10386837407078      6.03973412695867      3.06647882391600
  H   2.54325566902139      5.16571565498872      1.61134898147121
  H   3.94728189206011      7.21526919260588      2.04024482917901
  H   4.53968092576944      6.49963466014329      3.55566530286853
  H   4.96160221815094      5.35839875431954      0.86177811537006
  H   6.05202281132165      6.22641920652235      1.70621515510085
