38
Coordinates from ORCA-job BEBQOP_2_3_tpss_d4_lanl2dz_631gpol_Co3.opt
  Co  5.86523988555469      3.71136930224162      2.51573163706072
  S   6.68250540019074      4.91978343115375      7.02977113063916
  N   7.78703325182609      4.09327214762827      2.11045447278079
  N   6.28075191568132      1.73240603487233      2.64077986743211
  N   3.97076206202019      3.17698618765353      2.82854782161198
  N   5.26260539616619      5.46510577731324      1.71070036175002
  N   6.15409082665474      4.19752402185488      4.35675706697325
  C   8.47330811377645      3.26721954550229      1.05457580216353
  C   8.49881902085149      1.79005024546836      1.44624624268396
  C   7.11482758729005      1.14586842324609      1.53507539680850
  C   4.98962509519790      0.97719945403740      2.82511990718495
  C   4.03114515003967      1.87838031020283      3.58257522535725
  C   3.09988251918439      4.18916266708925      3.51834800768643
  C   2.95658076064960      5.47073844281809      2.69727509356528
  C   4.26093075641640      6.24622723378772      2.52929018808736
  C   6.38781154800164      4.50177379242431      5.50090846962003
  H   8.27307814897799      3.96724525277720      3.00906971871935
  H   7.92150547776012      5.08763532486305      1.88851626812488
  H   9.49623882488647      3.64340544817635      0.92662560464277
  H   7.93233557597647      3.42249715513585      0.11244638417471
  H   9.04687682964291      1.65627235991256      2.39265669140077
  H   9.07269164590395      1.24650723575095      0.68481562973929
  H   7.21214741110610      0.06611512501862      1.71474992459480
  H   6.55353112648219      1.28344611787912      0.60139764223631
  H   6.81459775221882      1.65548930222562      3.51697995007863
  H   4.60196783812800      0.74491296447235      1.82483100250306
  H   5.17142107457064      0.03096826153684      3.34905555525843
  H   4.39862975558008      2.10814548067810      4.58895200996065
  H   3.03049390884592      1.43366694465361      3.66168007515387
  H   3.54251832499457      2.98085656309373      1.91055693911985
  H   2.11391726247848      3.73214878153238      3.68042150763653
  H   3.55651900851728      4.38820316509326      4.49324585168505
  H   2.24099456781405      6.12250771894727      3.21496132749505
  H   2.50880491193793      5.25279396417761      1.71394126304669
  H   4.07272134509221      7.20173271509691      2.02377124509097
  H   4.73451152543609      6.44630272969912      3.49619087132454
  H   4.86203548454804      5.30703965016696      0.77437858639572
  H   6.07184290959958      6.07644072181827      1.54729926021249
