44
Coordinates from ORCA-job BEBQOP-CH3OH_2_5_tpss_d4_lanl2dz_631gpol_Co3.opt
  Co  5.90448337374109      3.86095904216561      2.58317500453372
  S   6.96094110232373      5.20079138080847      6.91654749469669
  N   7.93694206684514      4.16012906365231      1.85742596534998
  N   6.25075817982921      1.70960347405268      2.75987184017903
  N   3.87034873713936      3.22491257982770      2.95123968136036
  N   5.18411131383888      5.84497825407898      2.10749685484303
  N   6.33537049109023      4.27937837643320      4.33868302960635
  O   5.35533886695561      3.41229830522215      0.46125163479146
  C   8.65873330727177      3.05953736834719      1.13260336094552
  C   8.60942102532905      1.72749142552375      1.88622771027880
  C   7.24554906324471      1.02957990862628      1.87686351341129
  C   4.93117051144956      1.01064873787495      2.79345216480673
  C   3.93187418977375      1.86695272468079      3.56499572437415
  C   3.04371471487325      4.17200025018864      3.76568094590120
  C   2.89194707454910      5.54339085809884      3.10015818936643
  C   4.16145927853321      6.39874642488701      3.06364466675326
  C   6.60152742910164      4.68386082894874      5.45445942361483
  H   8.46641593081393      4.38065377115209      2.71020675020268
  H   7.99785592186044      5.01039994131775      1.28467240012778
  H   9.70353195683451      3.35779683131342      0.97566413559669
  H   8.19065959308182      2.95667878997413      0.14746235462319
  H   8.96679554675629      1.85522152257294      2.92058253883030
  H   9.32778037400624      1.05140157787464      1.40419543057773
  H   7.35568173132743     -0.01663293221678      2.19819199359220
  H   6.83036454614928      1.01561066358309      0.85960897238833
  H   6.63196789436100      1.68979325710660      3.71493200198928
  H   4.60000150597536      0.86474826704371      1.75471958136584
  H   5.02158324104454      0.01312497259885      3.24577753158185
  H   4.25977035653655      1.99641194935238      4.60453959071076
  H   2.94186935877473      1.38993719633534      3.57898898561626
  H   3.43290668795782      3.15032523812295      2.02349310578337
  H   2.05039269185737      3.72733679909361      3.92549026081175
  H   3.53185990188688      4.26575242979262      4.74333152197285
  H   2.13696530211126      6.10096074942255      3.66999486702237
  H   2.47717839988088      5.43251127136655      2.08484046066352
  H   3.90838966260282      7.42404627438629      2.76449766447803
  H   4.63284922868398      6.43843900563300      4.05187539852909
  H   4.77032298655496      5.85109403769371      1.16762245305880
  H   5.96985899484237      6.50540080161341      2.06697123265320
  C   5.67906992135301      4.08181585008893     -0.80082679726729
  H   6.03863192991812      5.07921850614144     -0.53818394775084
  H   6.46386477508887      3.53705939913911     -1.33574675993205
  H   4.77771800864375      4.15740965024948     -1.41779394148383
  H   5.17958282520615      2.47094517583061      0.26399500944515
