40
Coordinates from ORCA-job BEBQOP-OH_2_4_tpss_d4_lanl2dz_631gpol_Co3.opt
  Co  5.78665017758930      3.75948582924905      2.30452707993760
  S   6.83867333973415      4.91313641237916      6.64389104310669
  N   7.89210482731788      4.19715750635981      1.59395782030021
  N   6.22870104755153      1.76817777858309      2.66069966213669
  N   3.74282346186617      3.17498666013285      2.83176877635721
  N   5.17455246691668      5.70173643249799      1.95927778983498
  N   6.22151179813236      4.18011465341006      4.00588210262650
  O   5.28481129480263      3.31525294921118      0.66549733873303
  C   8.63714277407750      3.09498084835283      0.89876307266004
  C   8.57465077419835      1.78575526270480      1.68813602064746
  C   7.19686745994628      1.11667222235315      1.71863457078264
  C   4.92035378522966      1.03736136722282      2.69814545160605
  C   3.88286152764812      1.84425809075811      3.47500803530429
  C   2.92155278021573      4.14285474855391      3.60918930154880
  C   2.83878344491584      5.50302006590540      2.90840962298286
  C   4.14752290600363      6.29696838931443      2.88345398803961
  C   6.48615758719751      4.49670223529225      5.14557583614978
  H   8.39483994346501      4.42867713376002      2.45916698980248
  H   7.95513671977768      5.04498816379044      1.01615835404261
  H   9.68255611510770      3.39433497741503      0.74684968124195
  H   8.19015217235686      2.96393039145622     -0.09626439591847
  H   8.95743192419617      1.93270606439218      2.71071610686875
  H   9.26593363850490      1.07907039629343      1.21045017254428
  H   7.29822038115267      0.06789646171291      2.03426385764797
  H   6.72612148342501      1.12234808912354      0.72832422542249
  H   6.63864604055020      1.76854136379503      3.60323655179297
  H   4.60625070271435      0.89787023460083      1.65739224155253
  H   5.06853360079408      0.04956407667440      3.15502125681036
  H   4.20030960525402      2.00512230818005      4.51332112299959
  H   2.92600065427323      1.30356837846956      3.49287488795717
  H   3.33024168235183      3.05390206958636      1.89761348448548
  H   1.91018460872250      3.73303559582102      3.74908323458338
  H   3.38198494685612      4.24242166904596      4.60030924722229
  H   2.10216120723169      6.11211217983410      3.44858079287144
  H   2.44213231036867      5.38648792875509      1.88760402188433
  H   3.95393253067064      7.32333425286035      2.54283681399369
  H   4.60032918790460      6.34953700829214      3.87918215049031
  H   4.80074504796528      5.67202990460829      1.00202895603597
  H   6.00015938774647      6.31201786511553      1.94000265377203
  H   6.00654465526670      3.42568203413642      0.00623007914177
