44
Coordinates from ORCA-job BEBQOP-CH3OH_2_3_tpss_d4_lanl2dz_631gpol_Co3.opt
  Co  5.82287770206845      3.77508911944629      2.50748429682926
  S   6.96822665695072      4.72537551156285      7.06978360511909
  N   7.73282650432257      4.21509348804230      1.96713348287083
  N   6.24814949239186      1.80905669641010      2.78950207319973
  N   3.92573921088676      3.25853219623186      2.94256872813275
  N   5.25789110467495      5.66249182693636      2.05812657631934
  N   6.25337438770048      4.17625059592169      4.39703977258049
  O   5.25506325386364      3.28342952847078      0.27423182772249
  C   8.57383877375220      3.21704021060540      1.22198566043616
  C   8.60420607595631      1.85965254473884      1.92069009061391
  C   7.25603207579792      1.13896277346240      1.90984455550940
  C   4.95727835895615      1.04972765845452      2.83825165144633
  C   3.95365070884351      1.90426719077661      3.58746663085488
  C   3.12273683830545      4.21949737475931      3.76997472131944
  C   2.99289954307768      5.59394261491521      3.11684800904718
  C   4.31519164226223      6.34850704508778      3.01060629189606
  C   6.56498264501942      4.41209233030135      5.53885041116989
  H   8.17777438155005      4.41754535289818      2.87237261817713
  H   7.77454016089946      5.09829559407163      1.44437128800209
  H   9.59090728416418      3.62025384166506      1.13320491972173
  H   8.15291869843286      3.12558441505812      0.21504939849813
  H   8.98179156495101      1.95956531104176      2.95043527051052
  H   9.32841470655327      1.22643738088230      1.39217355400920
  H   7.37744679507940      0.10170146402177      2.25268151270295
  H   6.83660653617869      1.11665717685051      0.89670909911915
  H   6.62963795383222      1.83482747918805      3.74504812335556
  H   4.63693393077470      0.86881367918821      1.80355106919212
  H   5.09893431245734      0.07248841427463      3.31842141552811
  H   4.26685169896992      2.05325461199953      4.62758690803683
  H   2.95196326049641      1.45475395611302      3.58655491938847
  H   3.46884200221270      3.17726574508628      2.02279281381945
  H   2.12683141807298      3.78115814736391      3.92538695390729
  H   3.62392933245693      4.29160443674280      4.74135128227725
  H   2.31119588845028      6.19237368715114      3.73496013313213
  H   2.51275895700014      5.51319461899529      2.12817800047312
  H   4.14186491263768      7.37078181962072      2.65060651623736
  H   4.82406692911976      6.39866418413538      3.97863673685770
  H   4.82386786148187      5.64659568729905      1.12586307445629
  H   6.08873704795487      6.25965832032240      1.97156477673487
  C   5.62699274067245      3.94915471256039     -0.97505172880709
  H   6.12735560888693      4.87910397069342     -0.69076994996848
  H   6.31745537180528      3.32648464784235     -1.55457736871566
  H   4.73295245049276      4.17478241994953     -1.56670601541357
  H   4.88102321958523      2.41271021886072      0.03209629370000
