126
Coordinates from ORCA-job AVAZUV-CH3OH_0_1_tpss_d4_lanl2dz_631gpol_Fe2.opt
  Fe  3.81190598076921      4.53941443979072      6.39575085759713
  O   3.42852259860864      5.65959256159281      0.59799489127101
  O   3.91811704230459     10.06692434796616      4.02026112561655
  O   4.52908755318886      2.07844151241610      0.87195531550592
  N   3.78261261121436      3.03674905029478      5.18390562324677
  O   3.22493381139843     -1.43461456589286      5.04725488342434
  N   3.70934300384155      3.31729143176025      7.89243701089805
  N   3.94203675546897      4.19204121426336      3.04846893006788
  N   3.61859390998111      1.17856526024405      6.74335694582768
  N   1.84077091030747      4.73337704763064      6.20651903247742
  H   1.63690351007210      5.72617915549627      6.36287662393722
  H   1.64254749187600      4.54713419221193      5.21783733862730
  C   3.83627075435464      6.61196765896703      2.73523828949811
  C   3.90552929306732      5.41974736411616      3.55987353224723
  C   3.83437240159832      9.03484060987054      3.12393320397822
  C   3.60460574191628      6.78338874836603      1.35469371442926
  C   3.91500727176162      3.10206114835596      3.80700395834298
  C   3.64451674260777      9.20163570445010      1.74340759479286
  H   3.57339496534184     10.19881688030486      1.31710140837120
  C   3.92736454440327      7.71377135147372      3.61286096475237
  C   3.52951707647144      8.09821362346746      0.87343570097014
  H   3.37435855093994      8.28863870376436     -0.18570892759997
  C   3.65399743359097      1.69938271969430      5.52127899228647
  C   3.69988077326118      1.93560583382740      7.83428060859882
  C   3.94340073536294      1.76066775962990      3.24162883862834
  C   3.67910589395396      0.87577542139061      4.31672762191435
  C   3.53681770700482     11.37531024377303      3.55611036901683
  H   2.52953150795957     11.31781351158037      3.11346146672555
  H   4.23614696679720     11.71575002090365      2.77523191321794
  C   3.54045047276681     -0.50818431904603      4.08930073532691
  C   4.18720099045856      1.27764510307283      1.94291589622840
  C   3.75391111509504     -0.97863100736827      2.78184643121158
  H   3.65190337521118     -2.04704017027269      2.60223442186904
  C   5.82869196684266      2.70776021091188      1.01698123294025
  H   6.58462585408647      1.91422176034842      1.13453167095641
  H   5.82776572596138      3.34329453567698      1.91095024311787
  C   2.90000131672774      5.81043251733361     -0.73305801076493
  H   3.69662399222528      6.16490380432123     -1.40735050155346
  H   2.09437637285823      6.56108229275341     -0.72572864617470
  C   4.09450939705293     -0.10756515946041      1.73715127534716
  H   4.28214421645848     -0.49170408844129      0.73624873580420
  C   2.04458313351576     -1.17201536095120      5.86092498545993
  H   1.59721275696743     -0.21985187269439      5.54890434005753
  H   2.37688445277801     -1.07344281739425      6.89693446444180
  C   3.56430505297971     12.30592266215914      4.76115077596050
  H   3.15278304774658     13.28555173446572      4.48372662746544
  H   4.59054408278858     12.45095567174877      5.11753340587939
  H   2.97355598687409     11.88495561353942      5.58240336803940
  C   0.96112643614089      3.89540705595025      7.06190630348422
  H   1.20693659096333      2.84503165973718      6.88481057153216
  H   -0.09958616708409      4.07574873621018      6.83674335075484
  H   1.16549732755059      4.13468148938835      8.10859848628077
  C   6.08668871529910      3.54127242611709     -0.22780651227820
  H   5.98342444356125      2.92936120928985     -1.13359544366771
  H   7.10760457149872      3.94665395988842     -0.19682892305758
  H   5.37986581699905      4.37626254125472     -0.26884584507659
  C   2.37386072142394      4.44200586519883     -1.14943647334613
  H   2.03118047632940      4.47341729819540     -2.19261582596369
  H   1.53209157087765      4.15125215543884     -0.50941442526180
  H   3.15210503571084      3.67804004991440     -1.04828254294418
  C   1.07234783126734     -2.32901530239292      5.65492368600339
  H   0.74182136021386     -2.38208134643336      4.60927440227245
  H   0.18802419396026     -2.19923403899348      6.29560557369391
  H   1.54752178416213     -3.28453389078625      5.91279238121163
  O   4.23138270718505      3.44269619372144     12.19469975043786
  O   3.86449674394701     -0.97049475968092      8.76551927575498
  O   3.01437422164300      7.00699557634635     11.90556105711232
  N   3.86535223134873      6.04950182504066      7.60945908289328
  O   4.40586425644734     10.51919294690191      7.75763673383794
  N   3.96632857509496      5.77236549138538      4.89871474225635
  N   3.65855222484832      4.89464616529040      9.74003250227776
  N   4.06149954146808      7.91266260430382      6.05242910348175
  C   3.85813719304974      2.48156939731606     10.05481466066795
  C   3.75224080168724      3.67110533503807      9.22638474525373
  C   3.92590691359278      0.06121167484917      9.66366081490356
  C   4.09256749980560      2.31618229823302     11.43426749951742
  C   3.68628034498361      5.98444401888055      8.98252966705277
  C   4.12148281075026     -0.10255077851476     11.04463253308685
  H   4.22062678754276     -1.09801549958195     11.46950242840380
  C   3.79914199198901      1.37906695042449      9.17804893186350
  C   4.20561433212734      1.00245663423117     11.91455185042003
  H   4.36594117672130      0.81605978092832     12.97363516280780
  C   3.99236029442900      7.39203579240817      7.27399299709111
  C   4.00503715435475      7.15784787365802      4.95692052886978
  C   3.63503688778663      7.32574457979455      9.54484438709513
  C   3.92741483517846      8.21237019756657      8.47796137912021
  C   4.27548757053847     -2.27176899545038      9.22321689597552
  H   5.28519023622472     -2.19606453588976      9.65736634268560
  H   3.58938436073599     -2.62859654848988     10.00860793128328
  C   4.06248693934880      9.59626598770151      8.71014857274075
  C   3.36573477517261      7.80869857595815     10.83952904171500
  C   3.81659527856912     10.06617080833240     10.01110371191015
  H   3.91481596930661     11.13429876085979     10.19443587548761
  C   1.72760004252369      6.35628368044135     11.74545250120609
  H   0.95423683347755      7.13732657599906     11.66124012225813
  H   1.73549012497070      5.75353077074343     10.82919006493553
  C   4.75732994217854      3.30383022573624     13.52782375862732
  H   3.97144781589601      2.91343440439110     14.19492724598987
  H   5.59240910902932      2.58613149747701     13.52050774246291
  C   3.45231627947011      9.19356532728747     11.04727444016453
  H   3.24399683270042      9.57677300446039     12.04443105011851
  C   5.62225094696684     10.25952405777813      6.99756987306786
  H   6.05309932945196      9.30445571773839      7.32363781552085
  H   5.33680891485190     10.16730870812431      5.94711016375635
  C   4.25527480836137     -3.19820859565995      8.01466911516003
  H   4.68607133844827     -4.17163984935215      8.28457023351391
  H   3.22910471765873     -3.35927254386669      7.66497391467147
  H   4.83231960492418     -2.76334532875952      7.19092132949752
  C   1.49804167554006      5.47181704343428     12.96022930415232
  H   1.58920759905562      6.05363904302140     13.88696285884994
  H   0.48843013283015      5.03998932322479     12.91885663392427
  H   2.22929681538368      4.65726839562392     12.96680896376573
  C   5.22630875027109      4.68903396364560     13.95650015627558
  H   5.56881210626344      4.66273359800645     14.99990306793371
  H   6.05594583723099      5.01927291163025     13.31996471808693
  H   4.41721264512097      5.42109284481798     13.86139259371837
  C   6.58738725010527     11.41246025393577      7.25378895983209
  H   6.87040179343688     11.45825014088254      8.31358592061482
  H   7.49957627540680     11.28391113919136      6.65316286838373
  H   6.12693452872324     12.37090499532195      6.98064172516987
  O   5.86551804926422      4.43127357169446      6.61208924052519
  C   6.67326984494092      4.18160218578623      5.43299269501494
  H   6.41495798107164      4.87538530945450      4.62470896949448
  H   7.73284514088591      4.27159365871029      5.70272450528661
  H   6.44931928542866      3.15687548089911      5.13379369393581
  H   6.03596543455946      5.34299620622746      6.93002750416165
