126
Coordinates from ORCA-job AVAZUV-CH3OH_0_5_tpss_d4_lanl2dz_631gpol_Fe2.opt
  Fe  3.73396562901158      4.55055862599036      6.41486596866326
  O   3.34563922440220      5.65479106929238      0.63132852772150
  O   3.84341675436148     10.07081441388727      4.03981731855696
  O   4.67017230443433      2.02771197014749      0.91675120477363
  N   3.65910245916136      2.99660453000551      5.14597045069264
  O   3.16057802426295     -1.48102313854939      5.01899190378049
  N   3.41942936935346      3.30448503830929      7.96201273999433
  N   4.00465966946097      4.17613053296948      3.05483325855321
  N   3.45415041963635      1.18490038407402      6.75396158348329
  N   1.54284909525876      4.99352018237693      6.12702450539451
  H   1.29851417749935      5.85066541468810      6.63173765360985
  H   1.43497201702471      5.20078866013006      5.12968075870978
  C   3.83233204780135      6.61439163342108      2.74511571364733
  C   4.01205365504428      5.42018247606240      3.55352650768529
  C   3.74344978674526      9.03981406011978      3.14518718238193
  C   3.50737219086872      6.78404425964718      1.38181248225978
  C   3.90330713128617      3.06944356917432      3.79146151636259
  C   3.46428284237531      9.20063290766509      1.78026975180761
  H   3.32416397481289     10.19415732200374      1.36263787622405
  C   3.92285038852772      7.72336097205063      3.62584250384791
  C   3.34617165655049      8.09437836009763      0.91259044659170
  H   3.12189022813759      8.28179469309663     -0.13448080790170
  C   3.53440604343705      1.67131126130959      5.51412026348142
  C   3.49788118412976      1.92913531907885      7.86720147536743
  C   3.96063523515112      1.71509615729353      3.24302989498089
  C   3.64247953951386      0.83438586383431      4.31494643712063
  C   3.41922675558669     11.37309284361997      3.59675582955000
  H   2.38692430552231     11.30361138615948      3.21782051082977
  H   4.06503416645700     11.71787627460069      2.77289157158229
  C   3.52976856811665     -0.55103589906266      4.08615618249101
  C   4.29100076668699      1.22165740895454      1.96980837428684
  C   3.83281075971195     -1.03129028483643      2.79763442486379
  H   3.75266267427780     -2.10245667137209      2.62347902970308
  C   5.96430931079868      2.65792690602514      1.10581848741115
  H   6.73947928565749      1.87554052254889      1.05639549621511
  H   5.99853913932458      3.13172011620076      2.09459357912218
  C   2.84643593483864      5.79147229423181     -0.71167337352832
  H   3.63289542564117      6.22052979695252     -1.35344630539777
  H   1.98419668799254      6.47686007058770     -0.71607012918056
  C   4.22655248139042     -0.16735187026276      1.76869747127066
  H   4.47189986138959     -0.55723122681959      0.78260905158260
  C   1.97488208271720     -1.20308513439247      5.82020663060752
  H   1.51800628798233     -0.26811667737099      5.47215091944204
  H   2.29865550076060     -1.06383251735286      6.85432339994799
  C   3.51280174091822     12.30742068543297      4.79524594905573
  H   3.07964202601391     13.28382860027187      4.54041459679238
  H   4.55804124716128     12.45887369648886      5.08806821937299
  H   2.97482277911914     11.88627594063816      5.65197041149067
  C   0.64291092940466      3.88401501583751      6.51938597561964
  H   0.96453778134174      2.98107067562686      5.99022247017992
  H   -0.41474252775899      4.08566369469110      6.29163899940955
  H   0.76153487263741      3.70906041076847      7.59277310164248
  C   6.14019869180324      3.69898315790232      0.01363160015799
  H   6.03803980993893      3.24091356666950     -0.97930625542778
  H   7.14009671225016      4.14896139650072      0.08590535601152
  H   5.38539273482761      4.48283067216955      0.13344152101051
  C   2.44076803159953      4.39522847420589     -1.16726282797908
  H   2.11335916019568      4.42356640135247     -2.21528884452068
  H   1.61541171418870      4.02201180696011     -0.54919179876571
  H   3.27765718216603      3.69540045577009     -1.07030273897315
  C   1.02044905305173     -2.37943677057179      5.64700430649713
  H   0.69427527552564     -2.46949849418874      4.60262566380903
  H   0.13281470780554     -2.24106294770381      6.28096890832389
  H   1.50755870432083     -3.31968351484296      5.93629276432647
  O   4.33337171622140      3.44640654121832     12.18717361014493
  O   3.80772237074884     -0.96690137857654      8.78028624584129
  O   3.04756420272004      7.06936220700281     11.93065271469121
  N   3.97516560427808      6.10964353332281      7.67448678652567
  O   4.49808746567484     10.58252168223659      7.81006069774086
  N   4.19070671272324      5.79666381681103      4.87315146837900
  N   3.64126879060596      4.92487484532960      9.77000797912773
  N   4.17281299760955      7.92529899290528      6.07268997629479
  C   3.81814280786285      2.48706984548177     10.07969392483727
  C   3.62268855881421      3.68124368473140      9.27355352686881
  C   3.91766497936995      0.06420868199975      9.67311916176019
  C   4.16878808647217      2.31876437798820     11.43549299933318
  C   3.74663057609044      6.03138479959299      9.03450059787881
  C   4.22280336015536     -0.09687055759858     11.03334713666205
  H   4.37764181919004     -1.09010864133569     11.44638596667501
  C   3.72054275977224      1.37936902649792      9.19934695963736
  C   4.34862724081532      1.00812310063699     11.89968361697230
  H   4.59301621530843      0.82140756966210     12.94240096880491
  C   4.10472455505476      7.43835737411509      7.31284686077839
  C   4.12659217140070      7.17623308100780      4.96087863781755
  C   3.70899687424241      7.38418260408964      9.58879979229576
  C   4.01620952129242      8.26889191713005      8.51659991761978
  C   4.26276261780997     -2.26345295851873      9.20990286036938
  H   5.30124299609208     -2.17764139806643      9.56736627404183
  H   3.63965803797808     -2.62182288974343     10.04542465338378
  C   4.14276132923457      9.65265037206207      8.74933099427490
  C   3.40928837473878      7.87468431136438     10.87161158097608
  C   3.86879308782807     10.12877923363657     10.04517418396817
  H   3.95962945371321     11.19847621569007     10.22315956964781
  C   1.74662253439962      6.44519108418436     11.77027200159558
  H   0.97757143144967      7.23355252065423     11.82116006373949
  H   1.69466948460968      5.95681201118668     10.78939267315836
  C   4.90032528007247      3.31320411857691     13.50380978873652
  H   4.15009295631437      2.87929144623448     14.18463952028094
  H   5.76567991495980      2.63337777850846     13.46328300353035
  C   3.48953451739828      9.26198836857398     11.07764051017421
  H   3.26759188602476      9.64836883517692     12.07060776226662
  C   5.68024026656456     10.30643201193229      7.00262776857358
  H   6.13798698049790      9.37001706243717      7.34553394762659
  H   5.35136918159023     10.17049314602243      5.96961886230326
  C   4.16011626035857     -3.19547707107910      8.01051018318705
  H   4.60908722878424     -4.16729036267846      8.25545968680015
  H   3.11174051542896     -3.35880788441162      7.73539145389398
  H   4.67853723630430     -2.76575006326180      7.14615830891777
  C   1.58150341950441      5.42145987115054     12.88053023760756
  H   1.70563275155604      5.89300528600650     13.86461736693148
  H   0.57644551369679      4.97972982693892     12.83267184914309
  H   2.32671135928004      4.62879862612197     12.75862421626432
  C   5.31964326172900      4.71173536530586     13.93947127361200
  H   5.70324272586898      4.68384767140502     14.96836993302678
  H   6.10740284891729      5.09184093937956     13.27821740492946
  H   4.47381060756931      5.40581060327252     13.88984178309362
  C   6.63711963243537     11.48106826512987      7.17446441837079
  H   6.96865607244056     11.56729446278905      8.21745288746349
  H   7.52151054065509     11.34376494261524      6.53573320312940
  H   6.14968922165381     12.42291871824139      6.89081947685215
  O   6.01649620156963      4.22449671471182      6.74409407817559
  C   6.80605859954572      3.89043439238703      5.58251663661338
  H   6.52613637668173      4.51278640784220      4.72202443515872
  H   7.87670452605476      4.00293347920361      5.80288365111170
  H   6.58723326700465      2.84268203065074      5.36341784391735
  H   6.17765644564783      5.16274260354925      6.97563845984129
