120
Coordinates from ORCA-job AVAZUV_0_3_tpss_d4_lanl2dz_631gpol_Fe2.opt
  Fe  3.89571459264436      4.54772299528543      6.41579554921874
  O   3.62729886157280      5.64820796906572      0.61232024964946
  O   3.99828613688623     10.05973017842876      4.04252075696885
  O   4.84769745907222      2.07893879819454      0.91697120926969
  N   3.95185787709693      3.04378126660581      5.19911280202405
  O   3.39448504308828     -1.42480920576134      5.04936165636837
  N   3.86971267478427      3.32557760422299      7.92062796002050
  N   4.15743096692143      4.19255475753473      3.06508816692578
  N   3.77625647421610      1.18782349036410      6.76257143109381
  N   1.65662183567204      4.79549076011844      6.22439142664632
  H   1.43319218286197      5.74017169429420      6.55023694775759
  H   1.43258476138072      4.76970916661313      5.22561344111403
  C   3.98329320996007      6.60707819439956      2.75463209358682
  C   4.08081931713744      5.41783276200856      3.57742149681570
  C   3.93865797704135      9.02893933309925      3.14496085560062
  C   3.77032037848511      6.77381896244005      1.36980017349341
  C   4.13615832022766      3.10649791572517      3.82645130173549
  C   3.76377134446260      9.19176607136872      1.76139520921260
  H   3.68066387824327     10.18790326189132      1.33474270223585
  C   4.04390702596987      7.70979952660458      3.63450351314028
  C   3.67918162295854      8.08804447147290      0.88863674786107
  H   3.53485722113156      8.27774996866896     -0.17196548821184
  C   3.82984097101795      1.70664704546330      5.54038572851212
  C   3.85302359571789      1.94132391902881      7.85606758379832
  C   4.19744757997455      1.76510982126830      3.27023494316488
  C   3.89333614164628      0.88283767188970      4.33810187444372
  C   3.63364980685352     11.37101475995771      3.57263989869472
  H   2.62987422893769     11.32273143605560      3.12093775196965
  H   4.34392396642200     11.70329319339793      2.79834416563037
  C   3.75069067801239     -0.49948808818087      4.10585850579462
  C   4.47676609129714      1.28223538879023      1.97737931627743
  C   4.00177962218671     -0.96964543263366      2.80462705887046
  H   3.89803772888024     -2.03733512658620      2.62166549161518
  C   6.13000311709059      2.73888990564527      1.10063076448333
  H   6.90019477519927      1.96105505115698      1.22456714026527
  H   6.09500428821733      3.36122819880332      2.00207324021478
  C   3.16183472768657      5.79061758982779     -0.74344340978105
  H   3.98198500736830      6.16890218872931     -1.37475120613969
  H   2.33675763900975      6.51924374033820     -0.77451079249070
  C   4.37966904092947     -0.10236937051042      1.76978139449954
  H   4.59431182602345     -0.48918481013216      0.77551717289490
  C   2.20068061285723     -1.14688300395380      5.83837584610711
  H   1.76475181288851     -0.19543889862217      5.50825875602618
  H   2.51349452782829     -1.03981143950762      6.87961917747610
  C   3.65960870795560     12.30113248526917      4.77815371415211
  H   3.25874660323838     13.28438331080917      4.49815812610895
  H   4.68402722727261     12.43635872866129      5.14312689806154
  H   3.05875393941107     11.88474048931411      5.59443239855859
  C   0.85429651312788      3.79214228911606      6.95954164509645
  H   1.13502970101754      2.79537181488930      6.60263707023138
  H   -0.23129484972253      3.92818076584985      6.83561208415233
  H   1.10857353723468      3.85678474219192      8.02222250930727
  C   6.39326946888562      3.59340898459193     -0.12827796788813
  H   6.32512363409316      2.99055093079769     -1.04343577933201
  H   7.40243653922328      4.02361335069371     -0.06911914728407
  H   5.66673831174925      4.41104675789450     -0.17553517194234
  C   2.69351906717296      4.41028481398872     -1.18786572166699
  H   2.40100109663018      4.43658192747072     -2.24621936936169
  H   1.82964941301088      4.09507888472847     -0.59029264984384
  H   3.48656200640598      3.66741609743862     -1.05120067586793
  C   1.22603138951045     -2.30017035050659      5.62467845954566
  H   0.91576799074291     -2.36161263823007      4.57336503748294
  H   0.33026974672620     -2.15815572167442      6.24648210593718
  H   1.68976474196933     -3.25591376890849      5.90148026817722
  O   4.47602411913622      3.44126393195437     12.20927103762904
  O   3.99004015117215     -0.96396314027476      8.78535860120398
  O   3.26335270186344      7.01443301316102     11.95090890883651
  N   4.01284880019010      6.05183091260622      7.63919205367636
  O   4.59099392563704     10.51370747121025      7.77239055145192
  N   4.11559169463178      5.77238048567316      4.91546959245812
  N   3.85737690178992      4.89971372055927      9.77580426711167
  N   4.16633422366877      7.91023953243170      6.07413143799368
  C   4.05487792290159      2.48709353576906     10.07649254703240
  C   3.93932231414797      3.67805215984573      9.25987350408382
  C   4.08283137647378      0.06616755587602      9.68065510992904
  C   4.31075965562716      2.31800305357440     11.45352680310851
  C   3.87071452450682      5.98792998964167      9.01476765337216
  C   4.30083253263730     -0.09899738119753     11.05801536725263
  H   4.39527975887198     -1.09608291621560     11.48007109502572
  C   3.96609253153184      1.38621125450795      9.19686604354231
  C   4.41548921204320      1.00277890757577     11.92933430659405
  H   4.59338890103836      0.81167911201883     12.98461169355978
  C   4.13150072462244      7.38991904021978      7.29573837650787
  C   4.12416152654184      7.15624380148201      4.97877642386255
  C   3.82781160664918      7.32871452585092      9.57536246439060
  C   4.10091607744413      8.21176817922269      8.50014004089161
  C   4.39009949366510     -2.27173769007437      9.23687170147531
  H   5.40733485593996     -2.20952537977746      9.65487551003761
  H   3.71094555260016     -2.61804269258908     10.03282106154438
  C   4.25639944131688      9.59370395514374      8.72812499732892
  C   3.59399276742175      7.81201740141746     10.87696534796446
  C   4.04322074723062     10.06450526911687     10.03576524465238
  H   4.15488063856429     11.13178230507456     10.21636005486668
  C   1.97390088704126      6.36045987431288     11.82041549826064
  H   1.19950807411527      7.14029239930576     11.73760353061705
  H   1.96712625173119      5.74415116016015     10.91344133701538
  C   5.02194628609029      3.29773295409203     13.53541802738343
  H   4.24120091428001      2.91766848091025     14.21403006840639
  H   5.84754243765917      2.56983885972389     13.51435051363725
  C   3.69693868639343      9.19655844633938     11.08140523177924
  H   3.51534172583646      9.58262149146423     12.08254975230808
  C   5.78010720450017     10.23355815426303      6.97311590774983
  H   6.20815757903929      9.27415247629468      7.28810664673592
  H   5.45871735810239     10.14272206615825      5.93315816435603
  C   4.33824244130364     -3.19749984028682      8.02916128164572
  H   4.75537208890612     -4.17809859207462      8.29432513258785
  H   3.30474010404727     -3.34083487937914      7.69357249362797
  H   4.91230668488185     -2.77322674032931      7.19794170181674
  C   1.76465125581796      5.49537126807485     13.05257823874382
  H   1.87308384503795      6.09124359804862     13.96837002701193
  H   0.75389660967714      5.06476268074807     13.03561043524253
  H   2.49410417065955      4.67923940798512     13.05975791369584
  C   5.51409596742590      4.67770758992908     13.95394199012660
  H   5.87397380901943      4.64784066535409     14.99129966651997
  H   6.33655128163526      4.99775569554931     13.30319320500916
  H   4.71181813747137      5.41890144015415     13.87253089876822
  C   6.76689097470263     11.37495728521352      7.19390436611941
  H   7.08398416852439     11.42139047533595      8.24394508295044
  H   7.65775656469581     11.22993603324684      6.56595888376972
  H   6.31172807802307     12.33868005834373      6.93017776825082
