64
Coordinates from ORCA-job AWIGES-OH_1_3_tpss_d4_lanl2dz_631gpol_Mn2.opt
  Mn  5.46813297180668      7.79113505821477      0.88520764970908
  Cl  6.39584621416076      5.74767774727778      1.67798184514494
  Cl  4.07239433248739      7.88809886646794      2.78053225268710
  O   4.88386571370154      9.39774384109710      0.33741945385719
  N   4.01092841259128      6.73288474937221     -0.04983380341267
  N   6.39279286280864      7.45015513910186     -0.74790956220089
  N   7.32339018699507      8.68313086605515      1.36134076882426
  N   6.85727901828604      7.70727107351493      4.19320676638507
  C   5.22910542460409      5.19041630608573      5.20413858233002
  H   4.57258318832867      5.56198137751963      4.41793982485444
  C   5.24954004746218      3.83177552779362      5.53324525919107
  H   4.59878899273257      3.13890756493653      5.00363124572682
  C   6.10043671103301      3.36356510434439      6.54504502153971
  H   6.10790339697650      2.30594890653723      6.80217115070077
  C   6.93782277142402      4.25399182787073      7.23013926868528
  H   7.59221771927493      3.89266903326064      8.02096681404831
  C   6.92753007822455      5.61380286804874      6.89869036694911
  H   7.57077121054903      6.31099671764233      7.43727624710831
  C   6.07164945702819      6.08617479498139      5.88867698317052
  C   6.08316457900222      7.54034274897222      5.50629757418826
  H   5.08745632634650      7.93933050398349      5.28941163372531
  H   6.59335638516177      8.16627813306313      6.24702331081318
  C   6.96467477978296      9.14234915033500      3.72068381418389
  H   7.39133569440934      9.72600447664524      4.54203374629340
  H   5.93537989938019      9.45956023303421      3.51231963176358
  C   7.81890599121520      9.23141758906962      2.48215313823863
  C   9.08563504697276      9.86158914839813      2.50624475361468
  H   9.43585972426500     10.31072653498761      3.43292563492314
  C   9.86502510621556      9.91940858327941      1.35734244220250
  H   10.83627741326660     10.41028803273377      1.37152074147044
  C   9.38882549498068      9.31525439104901      0.17022993796339
  C   10.11359615569207      9.24819786171185     -1.07302967080617
  H   11.08868553793136      9.72829520917822     -1.12694572199023
  C   9.61651049710023      8.57784942751609     -2.16637767116977
  H   10.19765332249038      8.52459910956441     -3.08474464943040
  C   8.33811374136010      7.92004843288182     -2.11060260879959
  C   7.74612987617049      7.12993268363039     -3.13219753565050
  H   8.26070205918826      7.00615972544589     -4.08313028630496
  C   6.52446905597960      6.49169043384932     -2.91509368174838
  H   6.08741233729867      5.86414263025589     -3.68791304985973
  C   5.85348228603865      6.65833392855232     -1.68423446450900
  C   7.59977712235038      8.03845102258055     -0.91292000229679
  C   8.10667603687135      8.71221547938624      0.23799639088688
  C   4.59887247021766      5.96544124204647     -1.20882797271357
  H   3.85410064782033      5.82983202913168     -2.00286590722000
  H   4.88715097446151      4.97353671427301     -0.83647690097318
  C   2.80488438760330      7.56393777856912     -0.43388777278381
  H   2.56659780958934      8.15399568132557      0.45627098682092
  H   3.12916816910996      8.25000908582556     -1.22213531937832
  C   1.66038606084159      6.68439861738519     -0.87428750220524
  C   0.94705639143862      5.93604132788363      0.08119948748030
  H   1.19040507128035      6.04165017548979      1.13967308374476
  C   -0.08349887739369      5.07909699703877     -0.31837590575015
  H   -0.63564312977171      4.51011821620379      0.42750449575358
  C   -0.41490670052056      4.96341182871702     -1.67672120298360
  H   -1.22045268225701      4.29977805636299     -1.98557859692861
  C   0.28246104012838      5.71153262975387     -2.63339523569126
  H   0.01846201547247      5.63474992475794     -3.68671159105478
  C   1.31725978262754      6.56710398460831     -2.23217257423698
  H   1.84834502265527      7.16513215459697     -2.97458296574275
  H   6.37213950267534      7.14099150040807      3.44962603630669
  H   7.78967789685074      7.28119843941730      4.29734034461969
  H   3.70642867876850      6.05755296258728      0.66258413953137
  H   5.35593228845603      9.73510781339042     -0.45374866959536
