62
Coordinates from ORCA-job AWIGES_1_4_tpss_d4_lanl2dz_631gpol_Mn2.opt
  Mn  5.62549479918449      7.98335711003552      0.81688929331144
  Cl  6.08113271980877      5.77629985966166      1.85464955031281
  Cl  4.31505697604609      8.98141833140490      2.40303566111834
  N   4.09163805444388      7.05732862562726     -0.20837947854300
  N   6.34201138575970      7.89078738933866     -0.96204968456546
  N   7.51859301431007      8.58195837144723      1.23049377333798
  N   6.91436112791592      7.71334105929128      4.18683481651232
  C   4.81307555551348      5.52602537644726      5.30832569345491
  H   4.24930753054125      5.84619575052826      4.43364276584783
  C   4.65536866091609      4.23217978163763      5.81458575383383
  H   3.95930332828371      3.54631349231304      5.33617463110266
  C   5.38880410860946      3.82126697715529      6.93673044234602
  H   5.25937099019451      2.81528654785908      7.33136259395237
  C   6.28352362749508      4.70442866962661      7.55600691238394
  H   6.84542008267634      4.38946468174380      8.43301464782355
  C   6.44731141940573      5.99844038280817      7.04905753405995
  H   7.13258295684088      6.69191213890983      7.53854143668145
  C   5.71267007872815      6.41464136767771      5.92441985934078
  C   5.92340784282419      7.78970636554697      5.35439006967563
  H   5.01739556583303      8.22745977839211      4.92427005915240
  H   6.36196706821811      8.48161374698611      6.08239667318328
  C   7.33592684623519      9.07022066648995      3.64754840020768
  H   7.91900072458837      9.55529530093695      4.43617107182267
  H   6.40899925853788      9.62564456441025      3.47330887423403
  C   8.14952982704236      8.94184462461719      2.38910398116089
  C   9.52980159430978      9.19809650913897      2.43752943963444
  H   9.96676089064587      9.49071784598406      3.39005360881805
  C   10.33560255880503      9.09319444590927      1.30270432705696
  H   11.40225614032651      9.29898203783097      1.35311616299297
  C   9.73055472944886      8.71267759483317      0.08946441964419
  C   10.42682497014720      8.56261201410142     -1.16378966209498
  H   11.49944518051122      8.74616714126241     -1.17656249867394
  C   9.77736886744331      8.20519071851166     -2.32058917748167
  H   10.33083941153811      8.10503564111271     -3.25203887670211
  C   8.36015350254847      7.96140748064099     -2.32249786576379
  C   7.57362929374295      7.60131597459625     -3.44022131621893
  H   8.04096515005712      7.47857926399917     -4.41497008248256
  C   6.19471713231218      7.39454300534952     -3.29387178455992
  H   5.58671117371891      7.10903068396007     -4.14864188558007
  C   5.59489424724416      7.54796774569986     -2.03652878819174
  C   7.68569806653638      8.09832744965667     -1.08519673223194
  C   8.33252797021538      8.46712763360936      0.10891534575778
  C   4.14244345715512      7.38225388568640     -1.67691823570194
  H   3.60162411162184      8.32871530825741     -1.81806954479494
  H   3.63574891678831      6.61051083845186     -2.26845291339419
  C   2.68914336882637      7.06326563477207      0.35613654331116
  H   2.80254248131980      6.80698803478249      1.41383924197568
  H   2.31779862049857      8.09098046032045      0.29138651104526
  C   1.81168634981578      6.07919535765611     -0.38094034978136
  C   1.99728669033513      4.69796476255169     -0.18134247094885
  H   2.73376746467930      4.35013114440779      0.54536402823105
  C   1.23117740402658      3.77181559360766     -0.89701378603660
  H   1.37530036409188      2.70559368809612     -0.73212088624956
  C   0.26967248845802      4.21814500064443     -1.81569452886859
  H   -0.33075159788678      3.49761247994763     -2.36788884885382
  C   0.07498607546075      5.59119011724473     -2.01501341686831
  H   -0.67794911512882      5.93997422554407     -2.71944693978947
  C   0.84673281431847      6.51833844528307     -1.30283341149626
  H   0.68954533397619      7.58711691839297     -1.45153098051953
  H   6.49247313226992      7.12302183178980      3.41526157464522
  H   7.74328832108908      7.18114649535073      4.48933977545000
  H   4.44677888877982      6.09463563012254     -0.08736132702610
