68
Coordinates from ORCA-job AWIGES-CH3OH_1_2_tpss_d4_lanl2dz_631gpol_Mn2.opt
  Mn  5.67046089074928      7.87306986334912      0.94022836335044
  Cl  6.37315172819426      5.78057744242957      1.82081948677600
  Cl  4.31799811002477      8.41926715841567      2.84691657477513
  O   4.78528121256359      9.58710108117954      0.24187531792489
  N   4.13778772585798      6.81549309866353      0.00233345582398
  N   6.48290834690008      7.61003226720986     -0.74190123602798
  N   7.55612070318914      8.56212102401304      1.38371544523228
  N   7.00938380556599      7.64658702701336      4.28024969746998
  C   4.88568250838570      5.48526225129333      5.22801096345992
  H   4.31893801613300      5.99841026469554      4.45201418234324
  C   4.62757547462509      4.14443586726359      5.52737078082168
  H   3.85020402429916      3.61024000333423      4.98464483466601
  C   5.36262927989217      3.49110312730929      6.52692545451758
  H   5.15430582119434      2.44880254937866      6.76136600308008
  C   6.36173993222803      4.17827157712110      7.22913761752913
  H   6.92726919514753      3.67463863297146      8.01065695252274
  C   6.62903680099798      5.51879290273465      6.92757210942472
  H   7.39921777342748      6.05782520305760      7.48099428081447
  C   5.89095663032660      6.17688158933542      5.92909567721359
  C   6.19395228871880      7.60666645560057      5.57452855624418
  H   5.29574142584337      8.19157578136222      5.35466363836846
  H   6.79771378515638      8.11254401739934      6.33658973960782
  C   7.32922949413777      9.04517941897770      3.78861892463858
  H   7.87572436419868      9.55000729701668      4.59134880386547
  H   6.35657211658561      9.52208331879032      3.62919559907003
  C   8.15318036686517      8.98834533543974      2.53071939004008
  C   9.51773681721386      9.33489719395412      2.59198382609603
  H   9.92266676663943      9.68608868606404      3.53906456302033
  C   10.34019032798825      9.23806405854633      1.47273863244342
  H   11.39104281973350      9.51485710215604      1.52433469630406
  C   9.78171712097536      8.74654402244363      0.27555001591555
  C   10.51415476457656      8.54310302381922     -0.94842444339558
  H   11.57236572161207      8.79740619412804     -0.96000076370868
  C   9.91636862014733      8.03531542070692     -2.07695468763358
  H   10.49737116312927      7.88734230667678     -2.98522564765195
  C   8.52157017749010      7.68620841698509     -2.07635383080635
  C   7.79019965565299      7.14466228894700     -3.16023028626408
  H   8.28784124614516      6.94740845157192     -4.10754885531418
  C   6.42978694753745      6.85897524939243     -3.00883069225217
  H   5.86078183931188      6.44095893794066     -3.83599861979213
  C   5.78682365959211      7.10928944503968     -1.78358230779912
  C   7.80612219899088      7.89549476463413     -0.87441770461633
  C   8.39940070232192      8.42099776960599      0.29438214337786
  C   4.32134105295837      6.92517376405563     -1.48321215286123
  H   3.76993207921797      7.82020099036280     -1.80471568496318
  H   3.88986287358414      6.06372436149388     -2.00811411527032
  C   2.69666315213458      6.98522401024505      0.39763009142264
  H   2.67054068103344      6.87011813563803      1.48531221499446
  H   2.42106569712380      8.01948175262535      0.15957582120712
  C   1.79533914282700      5.99458855174274     -0.30474239576015
  C   1.84416495974932      4.63287138000419      0.04764179692047
  H   2.49492755175066      4.30753561127471      0.86130828056177
  C   1.05416655171367      3.69655277455472     -0.62770124551283
  H   1.09488934877508      2.64650642042095     -0.34339782200406
  C   0.20189056734034      4.11260317893262     -1.66112807912356
  H   -0.41720729464380      3.38498093558072     -2.18270248561092
  C   0.14208105266442      5.46657168608166     -2.01451701376117
  H   -0.52448092384884      5.79502535696775     -2.81010924270624
  C   0.93868955662647      6.40159893207906     -1.34066262189879
  H   0.88694186818128      7.45673879261041     -1.61218475447276
  H   6.48456052123450      7.13134448315354      3.52430991413934
  H   7.87537756300313      7.10296643241714      4.40829071901499
  H   4.42113579020482      5.86529104226086      0.28368336334611
  C   5.57634739317015     10.73599567319101     -0.16398145073019
  H   4.90408627148316     11.52583826306974     -0.51615814761783
  H   6.19424341144312     11.09468814318908      0.66744109008466
  H   6.21193967967854     10.39104177627830     -0.98189545118060
  H   4.22966908232797      9.81751966380212      1.02998272030652
