58
Coordinates from ORCA-job CLAZCO10_2_3_tpss_d4_lanl2dz_631gpol_Co3.opt
  Co  0.02416366947384      0.35118335450528     -0.22500278089435
  Cl  0.19709742525599      2.20661531121754     -1.53774900721858
  N   1.45935212916538      0.55594627205915      1.03192476712903
  N   -0.92538643940048      1.35091331650490      1.11100683640661
  C   1.18667138304693      1.29440663796324      2.09421759898717
  C   -0.22334094555202      1.76248012502569      2.13421332522251
  C   -2.33171762972659      1.72048044207545      0.92248388983401
  C   -3.16116147469300      0.50402124821152      0.49805523074735
  C   2.82848631303930      0.09485831362285      0.73662959589773
  H   -2.34689199777038      2.49687375405464      0.14197071777535
  H   -2.73188088079480      2.15494011746285      1.84374128024736
  H   -4.22159727001614      0.77956135316706      0.56034740853689
  H   -3.00105642931870     -0.33066810819928      1.19433111642460
  H   2.91224845708746     -0.95925048847738      1.03855748282868
  H   3.53200561382830      0.67733566168166      1.34223669973625
  C   -0.77614593367703      2.58490588455754      3.26367116611152
  C   2.15365052175848      1.63531225544770      3.14128103822890
  C   2.89538561801639      0.62101424002895      3.79628197950779
  C   3.79830147053064      0.96024572831954      4.80339282059053
  C   4.00215201446050      2.30944802667214      5.14023698700750
  C   3.28646356409301      3.32319523896190      4.48029460529919
  C   2.34966888788925      2.99316728241190      3.50126001544916
  H   -0.05807991836487      2.65419613946578      4.08313110069734
  H   -1.01659126361757      3.60148468216225      2.91989859298261
  H   -1.69915769751149      2.13869322210794      3.65641271624326
  H   2.72149055955006     -0.42475658912581      3.54970319733994
  H   4.34172973778441      0.17815659830006      5.32831209308639
  H   4.71651952267078      2.57046644817649      5.91795859838062
  H   3.45975465478918      4.36701400958756      4.73111028126087
  H   1.81050280164453      3.78121944377057      2.97842180299138
  N   -1.50579598067197     -0.39615855988373     -1.14252149256409
  N   0.97788864230253     -0.79849557048297     -1.43206139828422
  C   -2.88715508718441      0.07211754203221     -0.94164267970083
  C   3.13700511718277      0.26309490481122     -0.75339388601417
  C   -1.22084665994757     -1.31996086881316     -2.04163305269313
  C   0.23618378723724     -1.55811579700673     -2.19791435954780
  C   2.44211606631668     -0.78436188356921     -1.61879300943439
  H   -3.03519482872759      0.92876325682166     -1.61541213116888
  H   -3.57820741574716     -0.72423689549603     -1.24406296688271
  H   4.21892960102046      0.14433195228985     -0.89346048723985
  H   2.87130300055952      1.27542420183190     -1.08191819423028
  C   -2.19921389164318     -1.99381587999448     -2.90453938291792
  C   0.81422495106971     -2.45493867805527     -3.25046447379227
  H   2.82246786717368     -1.79025704608632     -1.38275572734367
  H   2.64510804885907     -0.58954796934849     -2.68079570263089
  C   -3.07672639822580     -1.24749053829177     -3.72814284774845
  C   -2.24654924995613     -3.41039006593322     -2.92719951851701
  H   0.04405018282883     -3.05132016569387     -3.74233077027666
  H   1.57633027043704     -3.12100197652796     -2.82389982640561
  H   1.31151647569872     -1.84299078300223     -4.01980530006250
  C   -3.97386562549965     -1.91083658640736     -4.56605094616434
  H   -3.01379334467664     -0.16156459794453     -3.74957891607125
  C   -3.17827124179339     -4.06097749364847     -3.73607009163121
  H   -1.59190068466793     -3.99007353872363     -2.27781976363095
  C   -4.03416803526614     -3.31408408901909     -4.56388866693832
  H   -4.62372013675680     -1.33675357775105     -5.22232149138811
  H   -3.23704357099805     -5.14682030798512     -3.72623612590804
  H   -4.74410832256518     -3.82619890984185     -5.20961794765003
