64
Coordinates from ORCA-job CLAZCO10-CH3OH_2_5_tpss_d4_lanl2dz_631gpol_Co3.opt
  Co  0.11869233773621      0.22834518867556     -0.16858292381541
  Cl  0.25710837726386      2.10908337361961     -1.36978374515912
  N   1.66598112818190      0.56640340944193      1.11248473785465
  N   -0.88461411747507      1.12373249482786      1.37361638517646
  C   1.36693446642434      1.37901374625849      2.09284390699704
  C   -0.11836301309078      1.63824662190961      2.28545646233283
  C   -2.34365625192159      1.27362831420176      1.33834536847533
  C   -3.04608304068718      0.10923632567826      0.61351835285082
  C   3.03843220548866      0.18226167370001      0.74626129269649
  H   -2.55306184670719      2.22090385475853      0.81721874375315
  H   -2.74936714466170      1.36354039408844      2.35509837278007
  H   -4.12423340892975      0.25355446701324      0.76379064343294
  H   -2.79325794776098     -0.84349314127972      1.09963423632180
  H   3.26485472861847     -0.76197112530554      1.26452214483368
  H   3.74868287870022      0.93710790783643      1.10841105132584
  C   -0.61281799709441      2.40690934939737      3.48017923633030
  C   2.34938958396633      2.03352470909640      2.97287134672205
  C   3.33919160125468      1.28215949578404      3.64840918694042
  C   4.26213117449933      1.92680313166089      4.47274556872500
  C   4.23480599351908      3.32693733536449      4.59983608101640
  C   3.26798345828744      4.08296619608683      3.91518257910150
  C   2.31765090114231      3.44333456238860      3.12021096120728
  H   0.13181485683377      2.42672073736900      4.27933555578196
  H   -0.83733336023933      3.44652291816524      3.19726156008283
  H   -1.54155181190559      1.97261105202279      3.86967818053105
  H   3.35278232988467      0.19717523693477      3.56401012241392
  H   5.00184028288195      1.34418346229644      5.01669976367342
  H   4.96506631046133      3.82687926198942      5.23228779398128
  H   3.25752039339242      5.16664906998788      4.00496674861802
  H   1.57852048071750      4.03140129662768      2.57898262143084
  O   -0.08344263439270     -1.71344738512773      1.00295508896416
  N   -1.47180340671150     -0.48230260606573     -1.22465757489666
  N   1.05376168856258     -1.05858825864532     -1.45663129335154
  C   -2.81971149651635      0.00305877535106     -0.90876086374123
  C   3.20574321817660     -0.00890424121310     -0.77282656126651
  C   -1.18000965929345     -1.25783697626322     -2.23502146432767
  C   0.29632995482258     -1.60717446495881     -2.35543873917370
  C   2.50904479573968     -1.23705543254505     -1.38712938523892
  H   -2.92434422114745      0.99882540298882     -1.36511488276239
  H   -3.57474235704605     -0.65511388744312     -1.36033776375970
  H   4.28242802764042     -0.12703006993811     -0.95414674891931
  H   2.89210499740279      0.89984567128376     -1.30301932379080
  C   -2.15420076410785     -1.72546744647728     -3.23645729382512
  C   0.81723228868754     -2.46278296942249     -3.47768825023784
  H   2.69497096818526     -2.13437811701442     -0.77617468369453
  H   2.91922176913889     -1.42872301288701     -2.38734020531480
  C   -2.96615609647588     -0.78585989977562     -3.91735082241376
  C   -2.29228233458214     -3.10579617151488     -3.51872905705051
  H   0.04832026682201     -2.67170395107539     -4.22338552839341
  H   1.20096126860462     -3.41614610061039     -3.08572351990341
  H   1.65386890340362     -1.95865220640998     -3.98073516889961
  C   -3.88841279891939     -1.22192607793673     -4.86987482899126
  H   -2.83359281491335      0.27863635932252     -3.73389150145717
  C   -3.24430206646712     -3.53453777286320     -4.44407530739709
  H   -1.68638834868662     -3.83797967496853     -2.98688636796047
  C   -4.03499000336941     -2.59419471656315     -5.12865260584438
  H   -4.48995415730282     -0.49617731083276     -5.41216117579272
  H   -3.37013585653038     -4.59731660355300     -4.63770639969753
  H   -4.75980514904106     -2.93242226557260     -5.86591119047731
  C   -0.15974574872619     -1.86314883105266      2.44723723303757
  H   0.69277463439806     -1.31342870237352      2.84878939343308
  H   -1.09570687774148     -1.45036366515138      2.84284432654518
  H   -0.07129588239486     -2.92362222368043      2.70669370925750
  H   -0.81477365599952     -2.22246648760681      0.59816642092904
