58
Coordinates from ORCA-job CLAZCO10_2_1_tpss_d4_lanl2dz_631gpol_Co3.opt
  Co  -0.00976360786699      0.10055116325596     -0.05676124356220
  Cl  0.15572986521508      1.93334579833317     -1.32537511697684
  N   1.47980019327602      0.50742524941792      1.08806675818622
  N   -0.96950479777876      1.11850113951855      1.26547058670896
  C   1.20762612675721      1.29369887979670      2.10693605460806
  C   -0.23440524014900      1.66376311609241      2.19682344204579
  C   -2.41043824153568      1.40340088353797      1.18213106091292
  C   -3.19134597513752      0.23513622530844      0.58259434815340
  C   2.86664414475531      0.10891041860658      0.78741434288415
  H   -2.52042976774950      2.30241027839145      0.55605639354605
  H   -2.79246014392687      1.63566370215537      2.18230325918851
  H   -4.26003762727435      0.47034029749658      0.66669521172138
  H   -3.01764529305972     -0.68466209425717      1.15874854074974
  H   3.03626476322353     -0.89300252106643      1.20878513056617
  H   3.54676244625657      0.80527931185657      1.29205989328940
  C   -0.78044630245262      2.54066693530204      3.28598159237605
  C   2.18823117727390      1.75430250939620      3.09856796491371
  C   2.98119813220866      0.82162881257060      3.81021695844417
  C   3.90162027689969      1.27053857071639      4.75742196254475
  C   4.06821987465771      2.64801899383938      4.97770137429180
  C   3.29995211156066      3.58055019574738      4.25983085033614
  C   2.34548258959248      3.14196891245373      3.34149331306726
  H   0.00015165971761      2.82457384593192      3.99375274704442
  H   -1.22645570202169      3.44966236495626      2.85750789225970
  H   -1.56934437318660      2.01746390904824      3.84519410537402
  H   2.83875902676907     -0.24586775842418      3.65170405128290
  H   4.48757893724760      0.55174338124058      5.32544963252980
  H   4.79386779147270      2.99500848195554      5.71006872485084
  H   3.44540384290192      4.64655089512096      4.41870226829686
  H   1.76429325942571      3.86684953811793      2.77380449632673
  N   -1.51409931463701     -0.49663536915536     -1.09094647128321
  N   0.96078256729947     -0.99836445658594     -1.30324057951007
  C   -2.88003240957419      0.01375006298164     -0.89689716267904
  C   3.12224692392798      0.10394313801485     -0.71957137933075
  C   -1.23405219787050     -1.37397003392978     -2.02904571548667
  C   0.21734838584654     -1.68718024271480     -2.12959766534840
  C   2.43169382397201     -1.05687111436649     -1.42938127256034
  H   -2.95313731917639      0.96528251155384     -1.44310584328052
  H   -3.59011160414236     -0.69300012320947     -1.34137789326232
  H   4.20266692711229     -0.00722421058316     -0.87764664481556
  H   2.81836166453124      1.06099325630455     -1.16038421483625
  C   -2.20528403856020     -1.92258275666002     -2.98655274572945
  C   0.77899714133138     -2.59195081981595     -3.18439454392522
  H   2.76814537589481     -2.01894157282964     -1.01134019824084
  H   2.68791370549413     -1.04555650238611     -2.49614265024791
  C   -2.94312945413133     -1.04811247683999     -3.82071184380997
  C   -2.38790028243493     -3.32323480267378     -3.09434759118082
  H   0.00007963259577     -3.20004120978954     -3.64845041248762
  H   1.55968252373978     -3.24351866054839     -2.77300411033920
  H   1.23938989072548     -1.98401644967355     -3.98052502806562
  C   -3.83308527523309     -1.57199925105172     -4.75923621545831
  H   -2.77725703538838      0.02612028383912     -3.76468185041121
  C   -3.31066187166323     -3.83269397795236     -4.00849761993034
  H   -1.84623998659533     -3.99926763221171     -2.43405912546417
  C   -4.02556658516957     -2.96061768535209     -4.84798417008890
  H   -4.37500275146999     -0.90157356128642     -5.42227464338759
  H   -3.47348708795155     -4.90618532743312     -4.07029667961345
  H   -4.73037049554496     -3.36417245206166     -5.57165232518712
