59
Coordinates from ORCA-job CLAZCO10-oxo_2_3_tpss_d4_lanl2dz_631gpol_Co3.opt
  Co  -0.02749012083680     -0.22091353729300      0.14657716624736
  Cl  0.17025001430856      1.61965914897674     -1.17989431869572
  N   1.50661962911651      0.43972872417763      1.17007567607977
  N   -0.99094803642906      0.91493740704479      1.41047949100128
  C   1.21282018381922      1.29771406636022      2.11135471910627
  C   -0.24019537320277      1.58988531091673      2.23057431022554
  C   -2.45612824761089      1.03707319091422      1.43847774237346
  C   -3.15890105133847     -0.14686693365195      0.77753609238865
  C   2.88201070211614      0.00745531196209      0.89226349300762
  H   -2.71600374602956      1.97678416230600      0.92741334521906
  H   -2.77097301769861      1.12046909432008      2.48660219339650
  H   -4.23817302657461     -0.00750860348723      0.91791121923036
  H   -2.88499726458363     -1.08905872563601      1.26982854274155
  H   3.05326071824568     -0.93148610750763      1.43908782194863
  H   3.56285965713841      0.76485953117008      1.29864320946300
  C   -0.79289376725030      2.53851807822170      3.25346746570776
  C   2.20346624660610      1.90987003233602      3.01301094307443
  C   2.99215622040741      1.09745618570482      3.85846185022172
  C   3.91104335669497      1.69151213407363      4.72657698088165
  C   4.07151326076649      3.08593486481067      4.73365520053321
  C   3.30208504658308      3.89432752455437      3.88108452551475
  C   2.35633970626926      3.31612926984948      3.03145751007379
  H   0.01072170318786      3.02105129271128      3.81318671628876
  H   -1.41320269278182      3.30628826471030      2.77137085289107
  H   -1.43001504124670      1.99647334119160      3.96848083024652
  H   2.85466818269440      0.01745249215191      3.86201075799234
  H   4.49934757585672      1.06927090224374      5.39695722535738
  H   4.79526222192080      3.54346257831584      5.40447014912086
  H   3.43921477700694      4.97315461163006      3.87858290792506
  H   1.77072035931485      3.94139786542368      2.35905102144692
  O   -0.16465537826215     -1.56568887915511      1.11520827192829
  N   -1.52745693279226     -0.69408399611729     -1.00068206825547
  N   0.95260373799985     -1.23307720779333     -1.21157716698464
  C   -2.88915816436733     -0.22018595408771     -0.72607949950155
  C   3.13630976540772     -0.19192475853749     -0.60173409226418
  C   -1.22678193511815     -1.43049130442876     -2.03756950990842
  C   0.21326451816621     -1.78480636762984     -2.12881177803087
  C   2.41061491319287     -1.40923462382934     -1.17530649528102
  H   -2.99805646052012      0.77226892394274     -1.18568590452757
  H   -3.59001343078042     -0.90543526280974     -1.21807674634240
  H   4.21232917961261     -0.36853388598003     -0.72654127164293
  H   2.87903685954404      0.71266774078027     -1.16489289938319
  C   -2.19274894581426     -1.79596566274907     -3.08682254882914
  C   0.76304301285689     -2.62452705379966     -3.24580627317420
  H   2.61586071617515     -2.30656448225445     -0.57084426533485
  H   2.76135017419461     -1.59771100430278     -2.19657496154210
  C   -2.82335125732228     -0.77244637180027     -3.83067231243813
  C   -2.47586773910021     -3.15489014651259     -3.35991280819413
  H   -0.04624489559178     -3.05320968979080     -3.84083777688602
  H   1.39530414897518     -3.43181320578958     -2.85575957749489
  H   1.37711113330238     -2.00264380393858     -3.91501071855063
  C   -3.71433650231611     -1.11154414858942     -4.85110524157433
  H   -2.57919572570675      0.27074777171891     -3.63754022029969
  C   -3.39376398073958     -3.47801347456006     -4.36150565540429
  H   -2.01253213358764     -3.94333210004622     -2.76848840565625
  C   -4.00573311287546     -2.46011353232269     -5.11149260151290
  H   -4.17927573771241     -0.32700952472390     -5.44358820431683
  H   -3.63166899410991     -4.52083339819814     -4.55789389982775
  H   -4.70892500918090     -2.71873607519697     -5.90005100977952
