63
Coordinates from ORCA-job ADEHIB-oxo_0_4_tpss_d4_lanl2dz_631gpol_Mn2.opt
  Mn  3.86690348014832      3.17512874278378     24.22065830032508
  S   5.45828507172330      2.01031779065217     19.09269060911539
  N   5.69115951743796      2.83864238418291     23.44412504411501
  N   4.30793352052627      1.31655950860186     25.09556076363684
  N   2.84457217733491      1.74064387621514     22.84996821014279
  N   2.01489501922149      3.12255966690079     24.99975204698127
  O   3.26140620886437      4.41551203251207     23.01839763424838
  O   3.55261070289336      6.67873197315674     23.00541021494856
  O   5.99772831093302      1.34508888562456     20.33036319313225
  O   4.04663616660349      1.61719092340913     18.83489075324193
  O   6.37765797245140      1.99489623274462     17.94077425407395
  O   4.46160477350210      4.11653151010222     25.45074208372606
  C   6.48826368320365      3.70491524276985     22.80837147585863
  H   6.18747552782025      4.74446142557707     22.82411191985727
  C   7.65927425397761      3.29125514270020     22.14645954752487
  H   8.23914355629740      4.03052998260181     21.60259510980448
  C   8.00399970715343      1.94912065344848     22.13273241362324
  H   8.86112228326651      1.59646899343286     21.56463425061344
  C   7.24707775545190      1.03519531954880     22.90699911054337
  C   7.56255333494159     -0.35412988512169     23.07217218252374
  H   8.41437786243935     -0.75752686695797     22.52824449706207
  C   6.82143587355990     -1.16473507680484     23.89799070446050
  H   7.08164527672802     -2.21479954175055     24.01884276788332
  C   5.70149233551029     -0.64528647152909     24.63099748743965
  C   4.92098864931267     -1.38555735002345     25.55256528650150
  H   5.14797228039110     -2.43544660533000     25.73162410174238
  C   3.88218702994002     -0.75859923424048     26.22839137529538
  H   3.27749964775246     -1.29846113266534     26.95299856169675
  C   3.60305692675445      0.60013385225593     25.97418310459876
  H   2.79770590752947      1.12082619501018     26.48512899175884
  C   6.10157422986123      1.54270794915244     23.56014614866378
  C   5.34390642752115      0.71525446106000     24.44022458386007
  C   3.27949117352077      1.08004333707176     21.77160504103721
  H   4.33913812903937      1.15747522032365     21.50983352723464
  C   2.41199701583822      0.32497369138972     20.94576210745809
  H   2.83098560634456     -0.12402347729084     20.05090453366885
  C   1.06820286232501      0.23900237224136     21.26665854949329
  H   0.37739507938468     -0.32775443587066     20.64374589282695
  C   0.58000931533467      0.92012765881789     22.41249800871719
  C   -0.79446323085113      0.90879188660668     22.83042761763902
  H   -1.50842296074219      0.33317590738337     22.24305892761825
  C   -1.21362184674472      1.61068056703587     23.93308900008669
  H   -2.26045531808693      1.59845440866396     24.23205077986238
  C   -0.28678805997994      2.38675350200679     24.70747028324726
  C   -0.64261356481232      3.15752182568062     25.84139831887897
  H   -1.68040761794724      3.17568005895126     26.17172152520994
  C   0.32693290197579      3.89297114659454     26.51174874576822
  H   0.07372411441674      4.50299104989274     27.37499748878513
  C   1.66024232421631      3.85801323265941     26.05848768433174
  H   2.47664574966998      4.41852337365565     26.51027685129093
  C   1.51976134073019      1.66793727505792     23.16785407171624
  C   1.07930704208622      2.40365405223414     24.31550174308585
  C   3.72015395040658      5.57756149764406     22.49676559817702
  C   4.46040009405447      5.34875877203549     21.21048935650375
  C   4.46726980044522      4.06992027828775     20.63583220953207
  H   3.79882507166760      3.31515669488007     21.03140248572949
  C   5.34936288662851      3.74834562921461     19.60234373977650
  C   6.19712753884574      4.73918511491052     19.08910505250803
  H   6.88394722026138      4.47654075653514     18.28674130932662
  C   6.14613918226872      6.04378388594065     19.61258024850919
  H   6.79380373789379      6.81653262128043     19.19901017434445
  C   5.29124805970477      6.35283012666660     20.67742831697653
  H   5.27451693105209      7.34396138947820     21.12676408165615
