62
Coordinates from ORCA-job ADEHIB_0_4_tpss_d4_lanl2dz_631gpol_Mn2.opt
  Mn  2.64078483149591      2.62271313027561     22.43620052515916
  S   7.49325338408997      4.09060098211100     19.43218438788505
  N   4.17923735414244      2.01053402091459     21.30625376666532
  N   4.12551220795856      2.24842361231421     23.98658295529594
  N   1.90151618140901      0.75782693008364     22.44629565401941
  N   1.05448584888234      2.93399279636807     23.57545185926756
  O   2.92138903429920      4.44169660684189     22.21158752444864
  O   3.34887004172238      5.62290230033267     24.09448540309265
  O   6.22567108420700      4.01292987559685     18.66077710134546
  O   8.43443585942451      5.15375633823742     19.04146952426305
  O   8.15719610490715      2.75319470011953     19.62036216952647
  C   4.20759381720538      1.94734655316242     19.96180385896253
  H   3.32494245766017      2.31965954364421     19.44718697706710
  C   5.30050744096995      1.43969859777326     19.25128803948508
  H   5.27323655402353      1.43615549942145     18.16753500900150
  C   6.43570524777398      1.01819210138863     19.94410824435968
  H   7.28523533958229      0.59729018853062     19.42090304769887
  C   6.45146647717687      1.12017082391738     21.36005318361402
  C   7.61057152951216      0.82303006811625     22.15059246936270
  H   8.50649954178186      0.48916304712644     21.63291731325448
  C   7.61627725426032      1.01892452464445     23.50802816396812
  H   8.51523151949070      0.82581172603930     24.09125543532856
  C   6.45141499219579      1.51102563939793     24.18460069492260
  C   6.39387401404220      1.78910436303080     25.57069871777617
  H   7.27280889089749      1.61379115296780     26.18963083285016
  C   5.22592711456991      2.29856598540978     26.12457024089556
  H   5.16281587037040      2.53579909995519     27.18388176449385
  C   4.10478406433535      2.50783057739584     25.29771550570800
  H   3.17223130291893      2.90382554800985     25.69362124674779
  C   5.29577567412143      1.61732666034886     22.00454027748541
  C   5.27972203563328      1.78165042576736     23.42565061797939
  C   2.36109103642457     -0.36003545282519     21.83019309895845
  H   3.22513816460850     -0.23039420040286     21.18690443894469
  C   1.76752542413885     -1.61464526431473     22.00158620324789
  H   2.18837569066057     -2.46767449810497     21.47487252513761
  C   0.65591590362270     -1.76521517154695     22.83757580318744
  H   0.18839481302718     -2.73779230085727     22.97906848145938
  C   0.14473016741162     -0.62880945799579     23.49656747600881
  C   -0.99307506212740     -0.63120323799191     24.37778089688881
  H   -1.50215120336488     -1.57619265407584     24.56124487135154
  C   -1.43825025604517      0.52158548451142     24.97564258687562
  H   -2.30282127586842      0.49732063461042     25.63731355404877
  C   -0.78644793917848      1.78340471384596     24.74736554866695
  C   -1.17670099734960      3.01338894157932     25.31526983440001
  H   -2.03492729606808      3.05900427119330     25.98347871391583
  C   -0.44208633429348      4.16287572270440     25.00668124437083
  H   -0.71143020405206      5.12590264549201     25.43345651341439
  C   0.65784386084929      4.10079726170636     24.14087459134362
  H   1.27459682326035      4.96611307539824     23.90887903650950
  C   0.79890375868209      0.61162549893421     23.26909817172221
  C   0.34011991210016      1.79369147288587     23.88253957330274
  C   3.76319221575389      5.06721944878246     23.07170620258277
  C   5.20605820878366      4.98807396315874     22.71659570310021
  C   5.61714755554298      4.70818536051079     21.40175112034395
  H   4.88976847728018      4.64120745980429     20.59816919670343
  C   6.96847316914779      4.50431649206337     21.11786582369012
  C   7.91685967954735      4.58028492464757     22.15197574632429
  H   8.96564393367965      4.39961907816343     21.92459917477904
  C   7.51344916104173      4.89628785681367     23.45546968738530
  H   8.25492518555449      4.96986445341767     24.25069950799925
  C   6.16103741025251      5.11208056401551     23.74087121849751
  H   5.82302694591618      5.34827949463268     24.74767094290371
