68
Coordinates from ORCA-job ADEHIB-CH3OH_0_4_tpss_d4_lanl2dz_631gpol_Mn2.opt
  Mn  3.83704777243611      3.00385726253072     24.13025951954052
  S   5.19000257479815      2.13697226326218     18.81008681581821
  N   5.71204226243488      2.70567062786552     23.42352612132796
  N   4.21347527156046      1.26472511520715     25.04252352133686
  N   2.81820369262097      1.58025912855569     22.62570725366827
  N   1.94594810980461      2.96856185972189     24.78122100729709
  O   3.36740451683026      4.50366438746750     23.03109665185297
  O   4.71861983506946      6.25302985230035     23.48264050506966
  O   5.86928899843961      1.38199481639121     19.91868561519712
  O   3.74027836626828      1.81317298695382     18.72961928837604
  O   5.93556968360194      2.16671797523494     17.53827513547299
  O   4.43410795000383      4.66623551973128     25.61200572419758
  C   6.58767303658583      3.49402624756725     22.76839057822236
  H   6.42831145908658      4.56352317325394     22.84498116944419
  C   7.64592933640614      2.97637932196541     22.01014407064574
  H   8.27789485002197      3.66615135299688     21.45854646195655
  C   7.81402868009241      1.59942129175886     21.90174116217755
  H   8.57358177645614      1.17805272077989     21.24875402363992
  C   6.99687395671322      0.74759235407800     22.67546148885059
  C   7.13784191184074     -0.67875401271437     22.74453327967488
  H   7.88972023649140     -1.15376782374772     22.11724385413541
  C   6.36135318672341     -1.43351854047592     23.58931700034433
  H   6.49506814029737     -2.51278015468475     23.64266681836552
  C   5.36751074161108     -0.82504954883174     24.43134610682292
  C   4.58087152738432     -1.51637938447583     25.38038288743045
  H   4.69996588776085     -2.59100691455773     25.50629031509779
  C   3.66310222836377     -0.80159062372628     26.15408760903097
  H   3.05545818058473     -1.30319620903808     26.90355761426187
  C   3.49514245429071      0.57446485137026     25.95473875765193
  H   2.75867350372148      1.14438361546913     26.51462197532562
  C   5.96984308516181      1.35292747413276     23.44371406827428
  C   5.16625521795544      0.57562500922373     24.31786848338909
  C   3.26393554490501      0.93796428053294     21.54113628144158
  H   4.29941194892353      1.10438241573132     21.23416760311152
  C   2.43827403108533      0.08390433981093     20.77280275814595
  H   2.85315463624616     -0.35196687911886     19.86992440709449
  C   1.12636660016316     -0.12294479847701     21.16269525545937
  H   0.46462507115820     -0.77110622439551     20.58919949030771
  C   0.62599673294754      0.54241891081710     22.31160152923477
  C   -0.72221356260303      0.41116944803886     22.78482976468402
  H   -1.39890383333738     -0.25099715504551     22.24608962269288
  C   -1.16306334003215      1.11117770967510     23.87919222928448
  H   -2.19189209553122      1.01317885412942     24.22243769105986
  C   -0.28920491755763      2.00257777426095     24.58797152503828
  C   -0.70034529834530      2.77871285479386     25.69769407643370
  H   -1.72608134985382      2.70364433932775     26.05549184298300
  C   0.20758988583175      3.63995935565052     26.30509281265820
  H   -0.08300965781938      4.26246122816556     27.14786801743737
  C   1.52367646838264      3.71236585369563     25.82154362145870
  H   2.27421348867281      4.36971867057513     26.25481437008801
  C   1.52130140344144      1.39965254866109     23.00711730332809
  C   1.05920755372063      2.13305614633060     24.14941607281738
  C   4.21636972036963      5.43646668293566     22.66430243646444
  C   4.68921054177688      5.36184834949441     21.25260287250030
  C   4.49272118183928      4.14784581197393     20.57508549984597
  H   3.80652916407769      3.41859873371272     20.99237764937189
  C   5.23618766776483      3.84209466500282     19.43244803137641
  C   6.10251303097859      4.80487264814342     18.89771261605084
  H   6.66890572716344      4.55622672609826     18.00221220131877
  C   6.23988169523380      6.05630545011919     19.52578742868573
  H   6.90567626919217      6.80528169684828     19.09757324646881
  C   5.56506997622008      6.32817811022386     20.71999588213937
  H   5.72553815141547      7.25719031263088     21.26350011919269
  C   5.68778559147461      4.58677865598574     26.31186576278326
  H   6.53404216279922      4.53738229053983     25.61301019200256
  H   5.81146186255527      5.45357002478399     26.97562718210670
  H   5.66414594690683      3.66995433961567     26.90996216525667
  H   4.48262356841556      5.42251983316527     24.93222555577624
