64
Coordinates from ORCA-job ADEHIB-OH_0_1_tpss_d4_lanl2dz_631gpol_Mn2.opt
  Mn  3.83407391044076      3.11354241002654     24.25477275526732
  S   5.30705332905431      2.15739289787775     18.90845026512228
  N   5.68218569945334      2.81650305113916     23.46112914866176
  N   4.31307085574352      1.39140045166122     25.18969417927678
  N   2.90741132431854      1.77624296901007     22.89895514825360
  N   1.99473388258972      3.12388199087158     24.97582233226505
  O   3.29137413140166      4.44135001076788     22.99558125914259
  O   4.53892531420743      6.25898651094416     23.48520985878667
  O   5.90824045713032      1.46906478087832     20.10399421324161
  O   3.88156506257080      1.77812590432209     18.71531127071951
  O   6.16459778183416      2.16081869070015     17.70915647276995
  O   4.39034831364124      4.28635407632018     25.47409885726585
  C   6.51117191521060      3.63049796194573     22.78957283922272
  H   6.28499397068499      4.68880969293965     22.81932200812030
  C   7.62468761371500      3.14961488871562     22.07755530249075
  H   8.21485254710194      3.85351289403456     21.49842717882319
  C   7.89920899163872      1.79100930258318     22.05741692570690
  H   8.70524818386444      1.39002007069368     21.44838747843066
  C   7.13593180484054      0.92826883334024     22.88008562702526
  C   7.39848774831168     -0.47085882382733     23.06585243190656
  H   8.20164287842777     -0.92576127728277     22.48916667611291
  C   6.67669856795325     -1.22326626839961     23.96031559681233
  H   6.90366612731366     -2.27835419707121     24.10310644940125
  C   5.62438790491306     -0.63460667052335     24.74146348129113
  C   4.88559274934613     -1.30623956959911     25.74484119529829
  H   5.09116696237015     -2.35397440680695     25.95854709079772
  C   3.91300315926377     -0.61262389617020     26.45689856848665
  H   3.34268982876491     -1.09847640666214     27.24483644450746
  C   3.64582387317520      0.73469449596621     26.14829739333610
  H   2.87634430226203      1.29745568957839     26.66942473612632
  C   6.04779674115076      1.50331986341681     23.57825937863155
  C   5.30269469764421      0.72865988774318     24.51499538064004
  C   3.39438707230152      1.17105451996692     21.80665555315789
  H   4.44461451567867      1.31839527516941     21.54373845997376
  C   2.58256658249458      0.39125309276308     20.95136347199144
  H   3.04010719514779     -0.00261640253441     20.04970899511979
  C   1.24002832657006      0.21816754534636     21.24742593737061
  H   0.59541270079740     -0.37500535507085     20.60032448439733
  C   0.69476233399903      0.85243476302083     22.39202343037797
  C   -0.68408450305860      0.77297521705681     22.78974994832089
  H   -1.36079567271245      0.16745689720378     22.18861569215069
  C   -1.15310642120911      1.44758034517223     23.88995525458602
  H   -2.20268732502229      1.38022994447918     24.17172710951252
  C   -0.28138976627417      2.27091327559287     24.68130613244036
  C   -0.68742395318721      3.02619392909996     25.80717791991705
  H   -1.72625848878383      2.99682376247906     26.13229987040774
  C   0.24779174996467      3.80947707807687     26.47528089666833
  H   -0.03749028356749      4.41048997431137     27.33525670184732
  C   1.58306590197244      3.84296941077947     26.03205862905517
  H   2.35880501776961      4.44426290128895     26.50031946473472
  C   1.57702380205382      1.63570086083432     23.17748524247904
  C   1.08545979361491      2.35280450491667     24.30633725186985
  C   4.08081445035111      5.44218944278046     22.65391451252553
  C   4.55853191069852      5.40610358513570     21.23737029744700
  C   4.44085908763253      4.17974655489315     20.56649745883254
  H   3.77556146230331      3.42578357855327     20.97105767317115
  C   5.24357476580662      3.88525632871413     19.46238040405694
  C   6.08526592781096      4.87711268150832     18.94287945393658
  H   6.70561140162013      4.63894742100727     18.08093735527511
  C   6.13458634872745      6.14534088575948     19.55183667587596
  H   6.78173902633404      6.91767746726645     19.13670599562921
  C   5.40661918506173      6.40368768960643     20.71860451579838
  H   5.51425148246907      7.34322565582703     21.25721284021130
  H   4.46775574229617      5.16021135986153     24.98387442691858
