64
Coordinates from ORCA-job ADEHIB-OH_0_5_tpss_d4_lanl2dz_631gpol_Mn2.opt
  Mn  3.90269529544210      3.13689249849968     24.10883870439439
  S   4.88660493214696      2.72502842764649     18.58844534953781
  N   5.85517866259477      2.37438630097802     23.14352166496222
  N   4.43485138038909      1.32631582637620     25.20826837779805
  N   2.84109384831783      1.84438930599992     22.76708271808145
  N   1.85253972082743      2.97740267280955     25.01566667423051
  O   3.38358594349576      4.56648085353408     23.01523375809174
  O   4.54839019304400      6.41113452819514     23.63219830684244
  O   5.61964740149986      1.91507205990748     19.62615356111705
  O   3.43309661634495      2.40733582310861     18.56815607778016
  O   5.56717978291099      2.81090402261324     17.28388222017340
  O   4.60373445194942      4.17921120139435     25.37752571102845
  C   6.55338563088470      2.90337454795375     22.13668730609739
  H   6.20974307520871      3.85939225753002     21.75898215354582
  C   7.67297413963257      2.26579454981318     21.55511896628036
  H   8.16267485241365      2.73324048810866     20.70748216187852
  C   8.08557786268532      1.04634558693160     22.05451094993766
  H   8.93563130959201      0.51993345634619     21.62347737466281
  C   7.37594110513283      0.46104167463503     23.13498545001853
  C   7.73876739668603     -0.79679850714839     23.72217133246937
  H   8.59602715812589     -1.33012276421832     23.31397271471844
  C   7.03258864737647     -1.31924316790092     24.77438558564076
  H   7.31938800336352     -2.27082209466425     25.21917814499333
  C   5.90332533122715     -0.62196933935813     25.31847385644202
  C   5.15348657472699     -1.10170016877360     26.41859158569673
  H   5.43043518374006     -2.04708279690851     26.88334824175946
  C   4.08406173518721     -0.35893256508286     26.89507397030557
  H   3.49575278438957     -0.69348431965544     27.74593149820589
  C   3.75668317200826      0.85297661715629     26.25677233001093
  H   2.92416042732180      1.46076532157762     26.59743542284715
  C   6.25483925083286      1.17068946022103     23.64400507047970
  C   5.50520599922193      0.62044609468522     24.74208743036242
  C   3.31604235772346      1.36737114126363     21.60830236495921
  H   4.34984376235465      1.58078827330597     21.34060542198896
  C   2.51566842114873      0.64660132243990     20.69397631344134
  H   2.96363244152366      0.35325920697462     19.75092363503657
  C   1.18851864993726      0.40577777258964     21.00121026204155
  H   0.54363013881721     -0.14030940349030     20.31419065211016
  C   0.64825748882175      0.91769540740843     22.20861025061871
  C   -0.73210389933496      0.76887481923960     22.58004535466290
  H   -1.38266882134427      0.19769727017574     21.91939380681057
  C   -1.23553028111353      1.34763821416034     23.71694574976532
  H   -2.28852470837247      1.24203411265634     23.97349727962557
  C   -0.38980543150330      2.12495214525809     24.57678455618842
  C   -0.84352865397555      2.80120656147734     25.73623124482252
  H   -1.89253997932652      2.72927371700249     26.02093051896868
  C   0.04450903599506      3.56165580931523     26.48626053010167
  H   -0.28539172420280      4.10318314139385     27.36964956172744
  C   1.39659735172933      3.62709105988397     26.08816822626563
  H   2.14093959441888      4.20638372794843     26.63237721543333
  C   1.51797880431556      1.64625437942494     23.06239459566685
  C   0.99042572982440      2.25446862457307     24.25326302987422
  C   4.15367795358841      5.62795802034715     22.75290434505465
  C   4.59331632451592      5.68950539174481     21.32780077142677
  C   4.29443892277712      4.59287076129290     20.50483711694599
  H   3.58020620845688      3.85121319304825     20.84583789007292
  C   4.99030566243789      4.38401542152062     19.31331211761172
  C   5.89492394984420      5.35530816805385     18.86429681165492
  H   6.42889067611925      5.18447481759173     17.93135081343695
  C   6.11935525344303      6.51156443933378     19.63380364717449
  H   6.81730100864848      7.26914030296243     19.27847680733804
  C   5.50450015379004      6.66638366060637     20.88169725567755
  H   5.74169817218520      7.50550340690171     21.53255582764239
  H   4.60181756803581      5.11397726128382     25.02275135546035
