62
Coordinates from ORCA-job ADEHIB_0_6_tpss_d4_lanl2dz_631gpol_Mn2.opt
  Mn  4.57855004591507      2.81775955614538     23.79506227457487
  S   5.14275222612782      3.07344560850721     19.29610596036096
  N   6.51464001870412      1.86834547441604     23.18872702772144
  N   4.83725191858114      1.09996123007807     25.19013786809371
  N   3.28663580735625      1.64801075730563     22.43333443032884
  N   2.40731074023682      3.25924345517481     24.42372596340570
  O   4.99827913600668      4.66474965519884     24.35364512963107
  O   3.72211243754021      6.54263727987284     24.50615546158618
  O   5.65852008584047      2.02459788485006     20.25228744328706
  O   4.23819991314465      2.51804109879011     18.26617306873166
  O   6.20802024958565      3.99266144565057     18.85064903011878
  C   7.32558522504901      2.25102396456370     22.19497096858008
  H   7.16220846021841      3.23168441856370     21.76700842805678
  C   8.38711067679011      1.44577920115413     21.72226020702159
  H   8.99270102534217      1.80801385284695     20.89668478197124
  C   8.61024555655156      0.21351697142192     22.30451057508712
  H   9.41635579355431     -0.43258132783798     21.95938319509659
  C   7.77549726302995     -0.21960840931196     23.36892888938813
  C   7.94422288021180     -1.47800334635863     24.03634416894718
  H   8.75412507316696     -2.13060748078253     23.71321396908971
  C   7.11095687822862     -1.85966547017162     25.05666161898740
  H   7.24729987659113     -2.81713736753435     25.55688952519161
  C   6.03883677604456     -1.00770649114403     25.48289593213853
  C   5.14057244946384     -1.34963167586137     26.52346232922005
  H   5.25893392915517     -2.30061253299567     27.04125644923214
  C   4.12048598207356     -0.47494414702512     26.86799656781470
  H   3.41554389108963     -0.71342392690063     27.66071712362806
  C   4.00107123784715      0.74327321110599     26.16907245923760
  H   3.20641263823319      1.45175934449788     26.39337273475234
  C   6.72701109526846      0.65127905950476     23.77093434211170
  C   5.84464236971630      0.24852763711810     24.83870511286358
  C   3.73440754286712      0.83584194526162     21.46822565861014
  H   4.73783753418889      0.44919380991078     21.58368999006172
  C   2.95510114576182      0.49411611126032     20.33970088888929
  H   3.40034887084719     -0.10373805307823     19.55132434725253
  C   1.66913846144436      0.98620655928940     20.23577071348305
  H   1.05686632905435      0.76613962606157     19.36280099212745
  C   1.14333505143105      1.80314303563536     21.27060617972126
  C   -0.18277884090431      2.34666372161628     21.24983049653443
  H   -0.82921565206742      2.10296936492267     20.40775001128218
  C   -0.62963872498945      3.16894417156458     22.25319771931465
  H   -1.63441523677731      3.58799154380852     22.22083855658740
  C   0.22076291197630      3.50949163827228     23.35558958336000
  C   -0.16103746466338      4.39461291109336     24.39385571972768
  H   -1.15707712143469      4.83580620902247     24.38160535468285
  C   0.74473267402362      4.71262870301320     25.39399579176296
  H   0.49245970656282      5.41468569691305     26.18443910211419
  C   2.02609778951012      4.12440732144855     25.37005593412277
  H   2.77679001315395      4.37949263581931     26.11446102305229
  C   2.00560688822891      2.11590205827486     22.35354250681364
  C   1.53754991150200      2.97213813247878     23.41146190591500
  C   4.18067280588114      5.59063111911277     23.86639719625454
  C   3.73967813895392      5.31121366642398     22.44444574673680
  C   4.53160952208574      4.50960001961074     21.60420648670682
  H   5.54788295420555      4.27178983716146     21.91500897732839
  C   4.06955056647985      4.08753502188762     20.35009681719766
  C   2.79263794311167      4.47810950231172     19.92935436415202
  H   2.43233897782055      4.12932629731676     18.96401618981472
  C   2.00953769508535      5.31272863197135     20.74432387679927
  H   1.02155652567620      5.62189169614200     20.40431927945198
  C   2.47812234131088      5.73454697133141     21.99348872475124
  H   1.88074908300748      6.36770116329808     22.64632682912928
