62
Coordinates from ORCA-job ADEHIB_0_2_tpss_d4_lanl2dz_631gpol_Mn2-opt.opt
  Mn  2.68063329841830      2.64893706286834     22.41407411039977
  S   7.53746653718012      4.10332637124473     19.46090091211475
  N   4.14285096579039      2.05903383064054     21.21545049183722
  N   3.97754193965996      2.27850449695682     23.79742294285561
  N   1.99088305378929      0.78510158836804     22.47402795888816
  N   1.12911036020630      2.95666695895152     23.60617952587637
  O   2.92887092968607      4.46765063710199     22.21194623935606
  O   3.35539029809521      5.69930996176385     24.05771784704000
  O   6.27866312897761      4.05757504232576     18.67212896567559
  O   8.49270731053647      5.16716930394897     19.10587188589833
  O   8.18471702715719      2.75664771918710     19.62919315438728
  C   4.19550560030947      2.00583915983255     19.87218768217020
  H   3.33287691956258      2.40281144927849     19.34184725119230
  C   5.29684590278346      1.48186172159401     19.18157464022364
  H   5.29148096866396      1.49095455707560     18.09731984431611
  C   6.41495275527676      1.02955530801133     19.88607234681458
  H   7.26812751555084      0.60937926833417     19.36808544968760
  C   6.40553854298939      1.11273330797606     21.30217097763552
  C   7.51865921233668      0.78420558142206     22.14555457020630
  H   8.43372976337913      0.43658155759046     21.67215886341485
  C   7.45963100742396      0.96066300745699     23.50699601441460
  H   8.32544280695386      0.73768068167137     24.12832651266061
  C   6.27588915229837      1.46872256540692     24.14220354904107
  C   6.13718984196041      1.72688846776507     25.52592816939748
  H   6.96521453961538      1.52332534680308     26.20275980273257
  C   4.94206561310012      2.25785043851051     26.00115549608559
  H   4.81036521574027      2.48161976867411     27.05698956518836
  C   3.87895438765183      2.51833003567633     25.11859565763547
  H   2.94107536037412      2.94154120184418     25.46216082700879
  C   5.24276122021129      1.62703619306017     21.91275059757881
  C   5.16436669460990      1.77504881082896     23.31898769117153
  C   2.45467829291730     -0.33032885412067     21.86207228352779
  H   3.29394940919690     -0.19214002951306     21.18909187597058
  C   1.89235352419891     -1.59858425281763     22.06938040370670
  H   2.31853058279894     -2.44869597554340     21.54194100706669
  C   0.81214766634062     -1.76189934935312     22.93426250025055
  H   0.36779445878921     -2.74094006062856     23.10260080903742
  C   0.29451170427459     -0.62165734195578     23.59183291889987
  C   -0.82558264690796     -0.63535302150825     24.49378855806628
  H   -1.30950128289822     -1.58834276854837     24.70200403458477
  C   -1.28997009550622      0.51791059043813     25.07742632240537
  H   -2.14464139479772      0.48606523545013     25.75141146818292
  C   -0.67103541651730      1.78785250752011     24.81436740667258
  C   -1.08855388470453      3.02439420524851     25.36060926506564
  H   -1.93900790680525      3.06083146273201     26.03940536692071
  C   -0.39320500822521      4.18026536819875     25.01628740884745
  H   -0.68141547881012      5.14651506511305     25.42313854467290
  C   0.70604706390365      4.12344314012599     24.13933718820485
  H   1.30351573984276      4.99704592579004     23.88661330740348
  C   0.92054897292669      0.62336219542318     23.33109315529709
  C   0.44475752959065      1.81166584615681     23.94032714692957
  C   3.77438315911824      5.10498017627430     23.05862133511154
  C   5.22007641281450      4.98364140473437     22.72990024694718
  C   5.64369179250829      4.71417777449215     21.41688648488147
  H   4.92692536116436      4.67556179286529     20.60195113565589
  C   6.99483893967983      4.48896608024587     21.14830490501112
  C   7.92878080039888      4.52716021079316     22.19757128096055
  H   8.97708749917310      4.33007024537935     21.98183257972827
  C   7.51274747644512      4.82686874962901     23.50096845727866
  H   8.24403253164410      4.87095979868521     24.30778284464903
  C   6.16123441611925      5.06819874268303     23.77055542803476
  H   5.81407191103696      5.29755373383970     24.77589478711723
