63
Coordinates from ORCA-job ADEHIB-oxo_0_2_tpss_d4_lanl2dz_631gpol_Mn2.opt
  Mn  3.87106443522549      3.11853846911680     24.36774354099908
  S   5.44363489889252      1.82866131011070     19.18103833551831
  N   5.70718278728890      2.91244893337555     23.55503640128356
  N   4.31420146143525      1.23987704222759     25.02525955819716
  N   2.83026106072474      1.74406317245298     22.94830867796419
  N   1.99152833660997      3.16279024848169     25.05485147551756
  O   3.29942342172200      4.40237185264797     23.16766188359512
  O   3.96507234867742      6.55607928996884     23.15501440351454
  O   5.99159829117091      1.22854744590637     20.44813861136217
  O   4.04467487391953      1.39267793553630     18.92541598891842
  O   6.37142772924040      1.79063150004881     18.03615869427051
  O   4.40338568585231      3.83086149455705     25.70976986292944
  C   6.49050940195121      3.82901157008525     22.97484881674506
  H   6.18090060968485      4.86269553490679     23.07065978794163
  C   7.66201494451992      3.48012653451081     22.27397817224211
  H   8.22235977689220      4.26351805000672     21.77232075917808
  C   8.03816218870636      2.14948415934840     22.18010732307809
  H   8.89875417547137      1.84967095055599     21.58733156712349
  C   7.30351558814499      1.17525647496463     22.89895860729253
  C   7.64450341952943     -0.21590816797634     22.97332728400762
  H   8.50472060412955     -0.56625779753966     22.40672681434132
  C   6.91619550076145     -1.09418901487725     23.73877659974438
  H   7.19724793177382     -2.14443418139755     23.79145487161463
  C   5.77445608534719     -0.64880448889558     24.48640342014504
  C   4.98976254334429     -1.46055689392869     25.34065425982098
  H   5.23688647587510     -2.51425774743798     25.46085811929224
  C   3.91556346293444     -0.90258071693792     26.02413393553598
  H   3.30631097518964     -1.50216357660949     26.69585834709383
  C   3.59977524318186      0.45830305656017     25.83857260908442
  H   2.75664264715870      0.92815743020597     26.33756769811502
  C   6.14688069375205      1.61929180012645     23.57656175749137
  C   5.39136346132921      0.71361371085331     24.37564618582402
  C   3.28244803623890      1.02704030027386     21.91262054313981
  H   4.35279115809715      1.05371565803114     21.68922778153265
  C   2.42108523394629      0.28611739463882     21.07040555434619
  H   2.85957567111728     -0.20904261529324     20.21031731501264
  C   1.06027949536323      0.27875632647278     21.32454479992071
  H   0.37318626297611     -0.27287680710254     20.68426626157995
  C   0.55342918299915      1.01772379803503     22.42327520922730
  C   -0.83776624566188      1.08244640384829     22.77421874617723
  H   -1.55118226608136      0.53261882113633     22.16205460464572
  C   -1.26976595682533      1.82098579873074     23.84681259262782
  H   -2.32836945045476      1.86507841018938     24.09782081091122
  C   -0.34158717898051      2.55585112092183     24.65921576009268
  C   -0.71323475508430      3.33982217919552     25.77721201208561
  H   -1.76258574080664      3.41232307917770     26.05933688591770
  C   0.26674659007721      4.01457772411950     26.49402920189646
  H   0.01168761630658      4.63367608455168     27.35050724686562
  C   1.61448102509120      3.90575433954888     26.10371401253952
  H   2.42699539640776      4.41414890252499     26.61673971427144
  C   1.49078404573875      1.73983386311149     23.20754678345720
  C   1.04057174472534      2.50435665473576     24.32921629201979
  C   3.89275263378790      5.46525344135395     22.58891086474118
  C   4.48568004848912      5.21248136275023     21.23880579967155
  C   4.48553747905941      3.91553371458170     20.71360251977566
  H   3.88239955640107      3.15928677716167     21.19914604556446
  C   5.29667910142673      3.57958999553166     19.62679926202911
  C   6.06140063300088      4.57458600154603     19.00586982404321
  H   6.69437213252537      4.29761129262543     18.16507207098711
  C   6.00892286534804      5.89802195432081     19.48091062972657
  H   6.59390484821196      6.67284046819619     18.98590272717978
  C   5.24247241615007      6.21859328604920     20.60531358015648
  H   5.24032735997147      7.22146888808009     21.02774017807186
