44
Coordinates from ORCA-job CBENCO_1_2_tpss_d4_lanl2dz_631gpol_Co2.opt
  Cl  1.44591447467268      1.72557723924386      2.97292718319074
  Co  2.09130929104267      2.34594434820979      5.02789008906608
  C   1.52495838109861      4.85264442156430      3.53021049688885
  C   2.45709534202518      6.41316303281559      5.18116913607735
  C   3.01462404874944     -0.46441836730175      5.15709307038464
  C   1.10152470878223     -0.00898364461840      6.25618945350781
  C   0.12163217413263      0.99884746085678      6.59205915297904
  C   -0.77620960558766      2.97993747536081      6.59791097575836
  C   -1.09451772950619      4.33701449596403      6.42123712012605
  C   -2.26808222108149      4.80165561878559      7.01217725860893
  C   -3.11198428062701      3.94638291538748      7.76204528392225
  C   -2.81330162153204      2.59519805547240      7.94854874912074
  C   -1.63367774316663      2.13341620822693      7.35403964934370
  C   2.57831052523407      5.08374172780904      5.51152753773666
  C   1.18072498364364     -1.36057277795821      6.50315677598780
  C   3.13420824972369      4.36276911219511      6.62790787851366
  C   3.62731445396195      2.56486614834181      7.77672951649132
  C   3.81016642162875      1.26548629695038      8.27839057034951
  C   4.43750265624019      1.13723036220379      9.51666268421631
  C   4.87950990267115      2.26355010787638     10.25007684837375
  C   4.70540415587701      3.56229220706517      9.77011256490474
  C   4.07271085654539      3.68650236524286      8.52848946676198
  N   2.03883080107548      4.20915244334399      4.56341299495951
  N   3.05263717429432      3.02336325114347      6.59506498335435
  N   3.73937203728222      4.80442073963247      7.76828549261957
  N   2.16598417066861      0.48602530371165      5.49996720084194
  N   0.30125159339595      2.24040622216707      6.13943288445448
  N   -1.02687064545038      0.88095277051128      7.32959081838249
  S   1.65928652024242      6.57191558436256      3.64926185882894
  S   2.59349658157038     -2.02868651122205      5.75659322586541
  H   -1.38835194803049      0.03319691725066      7.75302922256112
  H   2.78971751137857      7.28387765233815      5.73349159099783
  H   3.88209441923193     -0.28324704231302      4.53350147258320
  H   1.07422861483045      4.32626138785168      2.69428361644197
  H   4.59647409552370      0.14412989263004      9.93105425189327
  H   3.92777821080350      5.77093430716369      8.01081440055892
  H   5.04545334566364      4.42839178943098     10.33273661315366
  H   5.36742956596976      2.11434264666461     11.21062742701633
  H   -0.45163093189781      4.99158805416911      5.83920392213092
  H   -2.55032123664956      5.84574537211164      6.89345032085453
  H   -4.01974857619584      4.35266483488162      8.20252632776987
  H   -3.46636841295152      1.94219297899094      8.52301432864937
  H   0.48899526623623     -1.99046428728854      7.04919958389104
  H   3.47862441848013      0.39489088277411      7.72330599988070
