29
Coordinates from ORCA-job CUSCOI-oxo_1_5_tpss_d4_lanl2dz_631gpol_Co3.opt
  Co  5.06082831175253      8.73849419335428      2.94040645600194
  O   6.79326613644473      9.47094271524788      1.93627317566731
  O   7.99864594569185      8.57737329974561      0.19922875166461
  O   5.13581507536347      5.01549358576891      1.52680812321306
  N   5.80971725898189      7.03364451149354      2.43943062770456
  N   3.59682781621034      7.33268807767662      3.89315892865783
  N   6.27778882942315      8.85577741624471      4.60091538433745
  N   4.60559302610918     10.65331882611254      3.47347535239762
  O   4.04107656889837      8.82068728907641      1.66028992935480
  C   7.29822963135279      8.54860396970863      1.20825822418030
  C   7.06366437986243      7.04662801222806      1.78058742391056
  C   4.88889698129861      6.01176078786364      2.19794316634069
  C   3.53258926144598      6.23922223314084      2.87526197907009
  C   5.94923144615257     10.07318084319930      5.40967148488194
  C   5.64594473933547     11.18278620990602      4.40874440710854
  H   2.66401167432632      7.73358849624361      4.02562517627347
  H   3.88539040292177      6.95128010422078      4.79940999629329
  H   7.20157968429682      8.96979573313095      4.16505079142115
  H   6.32050341967960      8.01404070477807      5.18379875621827
  H   6.77221684918057     10.34582902626756      6.08195343487982
  H   5.06601158511089      9.83916156577809      6.01671730752175
  H   6.53055837648009     11.41113233138882      3.80417504966417
  H   5.30769466858377     12.09963448840326      4.90679984946075
  H   4.59012638301142     11.18481704591489      2.59589932449167
  H   3.66546753934071     10.71704724609756      3.87896119661230
  H   7.90655999897966      6.97480845240508      2.48739412988898
  H   7.15372226817595      6.27367086341075      1.01095588403740
  H   2.82403385292639      6.54455589758492      2.09706191710374
  H   3.18920788866238      5.29023607360827      3.30384377164180
