34
Coordinates from ORCA-job CUSCOI-CH3OH_1_5_tpss_d4_lanl2dz_631gpol_Co3.opt
  Co  5.21372150216238      8.97020164180762      2.90535132717827
  O   7.14627043556214      9.43396658796954      2.52533130597229
  O   9.03448052356018      8.63139252537465      1.57285559247289
  O   5.97836429270433      4.99438855030376      2.39506459965130
  N   5.79571984243061      7.28418680654290      1.99809721068485
  N   3.58652654619048      7.57918318915063      3.41250716392610
  N   6.05404152792207      8.60698775189786      4.91792106238256
  N   4.96614968720509     10.94081227610088      3.78331343315027
  O   4.07903637060100      9.64883872651731      1.18737032120605
  C   7.83317569238685      8.57445700819596      1.82805992766260
  C   7.01254115455236      7.35778456710185      1.24772344273902
  C   5.40577003905439      6.07717380572792      2.54163113881472
  C   4.14118489327671      6.19019339167834      3.40983875815527
  C   5.79864612624100      9.78616606820472      5.78889125535221
  C   5.92584477491827     11.04303339225835      4.93142464035110
  H   2.92118013186718      7.68717931706518      2.63961623723198
  H   3.04765789002981      7.73654374625854      4.26965325701781
  H   7.05335249464173      8.56245421306940      4.68805151132018
  H   5.82505479722962      7.73977001832522      5.41198219140584
  H   6.49357566310411      9.83666264625129      6.63817920696325
  H   4.78001984765676      9.69392050248695      6.18909520745404
  H   6.92835161950839     11.10058257231670      4.49354738107833
  H   5.74386887682179     11.94392148535008      5.53135126680153
  H   5.20461747398818     11.67180150434010      3.10420951745895
  H   4.01636666350375     11.15507949046741      4.10919514142585
  H   7.58753730174627      6.42463668028172      1.26161442093679
  H   6.81855940977583      7.64028106611835      0.20109116550779
  H   3.40602761746855      5.44919439652161      3.07212303994754
  H   4.41650241782389      5.92388981447461      4.43726087758154
  C   4.12166312713861      8.99832054266488     -0.12068800381438
  H   3.21171360297419      9.24356245421550     -0.67849145589108
  H   5.01258686038346      9.31369587113487     -0.67516107178428
  H   4.16844579724189      7.92810753916080      0.08554369896566
  H   4.04226499832782     10.61471985066393      1.04172523069298
