28
Coordinates from ORCA-job CUSCOI_1_3_tpss_d4_lanl2dz_631gpol_Co3.opt
  Co  5.26894581656913      8.58498997124403      3.02309628901584
  O   6.60127999390256      9.37272825591027      2.05480683845414
  O   8.27526341007326      8.96782950082069      0.61406627551038
  O   5.14989544485633      4.89010319983420      1.64788309600444
  N   5.74980587120839      7.03677283136208      2.22445605927815
  N   3.65414192131377      7.53619607110774      3.69469991954401
  N   6.34307959336976      8.83010313696510      4.90443947912944
  N   4.62655607852215     10.47738955832589      3.45763144566991
  C   7.35535699593464      8.54212177196841      1.28000111523716
  C   6.93091374822295      7.07017420784120      1.36759143946053
  C   4.90798668145496      5.93720860354080      2.23580381872659
  C   3.62322292631976      6.18058096168378      3.03508351281114
  C   5.90604999964408     10.11651937372780      5.52241785335243
  C   5.62425690331594     11.10280855002584      4.39040514821056
  H   2.76710556644927      8.02122898018907      3.52783141785513
  H   3.72499016224564      7.42517392840531      4.71120121933949
  H   7.30922256067150      8.91810208139131      4.56869133803190
  H   6.34706171417130      8.07145683204266      5.59321734126569
  H   6.66033978205444     10.52398665444005      6.20765629428470
  H   4.99357597023557      9.91718348955493      6.09951482217605
  H   6.52995696738099     11.28251807233249      3.80139343224535
  H   5.25486160752030     12.05893569923087      4.78109055092717
  H   4.62965920512548     10.99360571176671      2.56959615565834
  H   3.68042927384889     10.57020167018142      3.84436815310948
  H   7.75196669267330      6.47444847939066      1.79142005667999
  H   6.71349621516850      6.66516027605737      0.37071861753812
  H   2.77794914581984      6.13945800559074      2.34030935230968
  H   3.48792975192702      5.38911412506824      3.77920895817405
