30
Coordinates from ORCA-job CUSCOI-OH_1_2_tpss_d4_lanl2dz_631gpol_Co3.opt
  Co  5.07738393053833      8.76797152206559      2.78009491039881
  O   6.58964483010726      9.52345925503988      1.98517976604319
  O   8.45560995323251      8.96852909618047      0.86275676726774
  O   5.40945905514741      4.88642850318651      2.21543491219382
  N   5.71499624126786      7.16451457729158      2.23804163709200
  N   3.49843735084198      7.71940531446590      3.45647014036396
  N   6.16533343454291      8.64471927851834      4.50636721820547
  N   4.65685951881912     10.61384790664750      3.49911733465150
  O   4.03788222611702      9.15484149262137      1.37031899426127
  C   7.39207717165218      8.64166617764063      1.35215992209873
  C   6.82274554999230      7.21041128142190      1.30293670561143
  C   5.06090804296116      6.00216610293772      2.59008275165406
  C   3.85557430782175      6.26603198064087      3.50335107837264
  C   5.84006486834547      9.77425023575073      5.43320122018580
  C   5.64116292944209     11.00329641073389      4.55323183444607
  H   2.83212897885028      7.89981290689239      2.69385830254527
  H   3.05554505353552      8.01621856188859      4.33138810756781
  H   7.12290173238034      8.75539063599379      4.15005694564472
  H   6.12876636172906      7.74032820222656      4.98747703268696
  H   6.63545962994928      9.92533550928276      6.17331669176784
  H   4.91591738809919      9.51518099797512      5.96509476486308
  H   6.57178318085823     11.26251144820080      4.03729332297641
  H   5.29722872112192     11.86913564102569      5.13156650511959
  H   4.72619271063880     11.22839345615341      2.68130443187879
  H   3.69058734260142     10.68544125761068      3.83641042421575
  H   7.58637280500185      6.45685799842126      1.53261381484261
  H   6.46531777005853      7.01940068013308      0.27783336393466
  H   3.01713384613211      5.63450727028276      3.19171475961206
  H   4.11615460695792      5.99578396132193      4.53384544793261
  H   4.63000046125598      9.53872233744792      0.68349089156525
