78
Coordinates from ORCA-job BIRKOF-CH3OH_1_2_tpss_d4_lanl2dz_631gpol_Co2.opt
  C   -3.72327112089400      6.73565102844243      7.06700997326713
  C   -0.55009878537650      8.50377601685842      1.40278115350588
  C   -1.74100665149096      7.97907561679382      0.87491255489433
  C   0.08414638055890      7.89154191477717      2.53184962401574
  C   0.27047172396345      3.82338159327279      8.37431521316853
  C   1.37186471841858      2.95056987067539      8.26978689453289
  H   1.93912555723963      2.67356654777211      9.15364687676036
  C   -0.54991089396173      6.74880561891998      3.08539597327647
  C   -1.03047743214256      9.76522432276941     -0.26343163515372
  C   -3.14866129695450      6.51657091861038      8.31450866856052
  C   0.95579051152324      2.84098251437857      5.86471290714601
  H   1.19804942458063      2.48375040826509      4.86665286247941
  C   -1.77517825104741      6.22592696749842      2.53256127465814
  C   -2.40476509861646      6.83023380421811      1.40321581122456
  C   -0.20149639591325      4.42150649982554      9.59082221779532
  C   -0.44268825543692      4.15571051676624      7.19564378584846
  C   -0.47549336208929      5.02363819319489     11.63836531602353
  C   1.12885882304842      4.36778319275251     14.95941200242656
  H   1.96190308301768      3.77938351201818     15.33294288427640
  C   -3.41711118254923      4.55864775888561      2.64354145959368
  H   -3.74946978220825      3.65975532689109      3.15424870620530
  C   -1.30553513970646      5.29404271086225      9.58571814563690
  C   -1.23273919842307     12.83077849027195     -3.23545065789454
  C   1.69892605785048      2.47018955506620      7.00710001541069
  C   0.81170269350720      4.37137660032426     13.60672853759563
  H   1.39444258306306      3.78317748123234     12.90316930070196
  C   -3.20258576280552      6.09767500718253      5.92716290332803
  H   -3.63552247051717      6.25154427804728      4.94380943868305
  C   1.29187769408501      8.33710406748397      3.10773009856524
  H   1.80106853648739      9.20635905480666      2.70092484240408
  C   -1.56758618447396      5.04181908963491      7.21088174098698
  C   -4.09647461119702      5.10690797321373      1.54134444178277
  C   -2.03649577971077      5.64886906224306      8.41195417264180
  C   -1.06059861637840     10.81466706766650     -1.28097654012310
  C   0.10450511345336     11.35166268079842     -1.87586578571036
  C   -2.40946644283930     12.32279313810085     -2.67108009866667
  H   -3.37722577345011     12.71224579151323     -2.97330486929639
  C   0.35534952783462      5.13728114352257     15.83926540507480
  C   -3.59462597530279      6.24215584213860      0.91791264990668
  H   -4.10906548545810      6.66764107017945      0.05827607182295
  C   1.79632530873046      7.62603454847255      4.18800922480099
  C   -0.71934047147429      5.89920136590661     15.37202166958403
  H   -1.31707490995720      6.49457454283249     16.05482076621194
  C   -0.26668979062833      5.12550136974315     13.08263185056038
  C   -2.30735292123208     11.32612820778987     -1.70330942753435
  H   -3.21617349545931     10.96113696138615     -1.22675469735684
  C   -1.01601056645319      5.88461231079308     14.00767822148073
  C   1.11222054091702      6.49370916941959      4.68571035025173
  H   1.50802038615637      5.92563154697502      5.52357260782653
  C   0.02315665668422     12.35475524774535     -2.84661539133850
  H   0.92880822252179     12.74834282965689     -3.29727244925343
  Cl  3.28630966401943      8.10556786934876      4.96127329904383
  Cl  3.04552596572911      1.38619923912450      6.79159646249546
  Cl  0.72944609844336      5.15239634938357     17.54510581888876
  Cl  1.70060922880084     10.76116083669207     -1.47452997941874
  Cl  -1.32813126490416     14.08722285825079     -4.44877360936935
  Cl  -2.40006931557121      6.88786942929814     13.53120981687395
  Cl  -0.16185052126594      3.16791052830060      2.90610382054223
  Co  -1.21644355544617      4.35616021688020      4.53695160484153
  N   -2.03899327695175      8.80787798252725     -0.18664474875410
  H   -2.76878489126070      8.67087310073704     -0.87850419104581
  N   -0.09667435265126      3.66595081737964      5.96175983999198
  N   -0.12612916281534      9.60101737007767      0.69855641391032
  N   0.29840084048267      4.26365611735995     10.85234423208538
  N   -0.02983359179453      6.07508503608651      4.14572659285698
  N   -2.29346304123758      5.11113714847631      3.12751085046770
  N   -1.45893927645466      5.66369502211882     10.90283780223868
  H   -2.15744912904043      6.29205126726253     11.29020645860383
  N   -2.14891874745108      5.26341638591349      5.99033152336241
  O   -2.73677309296449      2.61344515532719      4.86400570246748
  H   -4.57867658607783      7.39733264585152      6.95796000773774
  H   -5.00279798866505      4.62592018789721      1.18328868784953
  H   -3.54957321894993      7.00774654821048      9.19874405819525
  C   -2.29082345951735      1.23974586099501      4.69460415767233
  H   -1.86781069666526      1.19122819199594      3.69049958531096
  H   -1.51409600519524      0.98773007439607      5.42811522022290
  H   -3.14413544791873      0.55698200854753      4.79335848052432
  H   -3.07465661417001      2.71161140296494      5.77608502981464
