73
Coordinates from ORCA-job BIRKOF-oxo_1_2_tpss_d4_lanl2dz_631gpol_Co2.opt
  C   -3.67587100078900      6.72394366612593      6.93882535203347
  C   -0.65614262550487      8.36848941600349      1.40832159368280
  C   -1.84459246926353      7.84369050681805      0.86647476096008
  C   -0.00385556137003      7.73054897303581      2.51392922614714
  C   0.20391061777511      3.68742134682380      8.30849860059391
  C   1.26141271616421      2.75973374694403      8.21922785874465
  H   1.79218988307753      2.44669947708446      9.11376117833526
  C   -0.63065531323574      6.57076264650121      3.03342595497271
  C   -1.15745592508283      9.67191158800886     -0.21968228010474
  C   -3.13103381485590      6.48055782680738      8.19358301379205
  C   0.88739631891561      2.67690594021110      5.80693598056808
  H   1.11728068173656      2.29738316103705      4.81502710741049
  C   -1.85033776786754      6.06110256698573      2.47623417081908
  C   -2.49350235951784      6.67196853408684      1.36321578907899
  C   -0.27275579937639      4.29300458701345      9.51939603722507
  C   -0.46074587531084      4.06359800401640      7.11624830341039
  C   -0.57782978941573      4.87962723616404     11.56666934898665
  C   0.91184560142453      4.12043417011136     14.91822020361472
  H   1.70780906185080      3.49135031378507     15.30593203903803
  C   -3.44338692299097      4.34281124512918      2.58066712061260
  H   -3.71983787931929      3.42685843701806      3.09887926903363
  C   -1.34865993007593      5.20082109861531      9.49863851645768
  C   -1.41787850493097     12.81366326392228     -3.10556737240825
  C   1.58836917028036      2.26250876466309      6.96391072006673
  C   0.62889475277704      4.15072393861749     13.55836967362823
  H   1.20175315323998      3.54332402705001     12.86315745840176
  C   -3.14227027932743      6.08572049761305      5.80326177552048
  H   -3.55369282874214      6.24354214141923      4.81214324295873
  C   1.20893552939810      8.15261264382041      3.09724874278787
  H   1.71731542269680      9.03606176203153      2.72105938426178
  C   -1.55499473041479      4.98662492486157      7.11513410286099
  C   -4.13613833444004      4.89350884113587      1.48442600241674
  C   -2.03955751026736      5.58923490930665      8.31234452913580
  C   -1.20668193701751     10.74943956650837     -1.20614244366323
  C   -0.05194064493466     11.32320850603829     -1.78684802128029
  C   -2.58463340588170     12.26977413471388     -2.55329872371757
  H   -3.55969227521784     12.64962669640142     -2.84394315029386
  C   0.15162295370477      4.91551321075774     15.78689491776738
  C   -3.67055543710773      6.05422917080565      0.87721442951824
  H   -4.20226794280367      6.47546908137131      0.02609855992630
  C   1.72387428712390      7.39849497085913      4.14434801143168
  C   -0.87638067230251      5.72926543996165     15.30154376067963
  H   -1.46377243217466      6.34415783480320     15.97594859770040
  C   -0.40146201657421      4.95765037578050     13.01639501266972
  C   -2.46339199553769     11.24947133849658     -1.61315741907771
  H   -3.36535546163927     10.85608744933231     -1.14621467624114
  C   -1.13933857962508      5.74111759974098     13.93051696020624
  C   1.05088949064287      6.24391246731731      4.60576200165582
  H   1.46004982689239      5.64007809682546      5.40950478498296
  C   -0.15297668135335     12.34993503657609     -2.73047570467405
  H   0.74468427325415     12.77156848469501     -3.17163562516019
  Cl  3.21859533903045      7.84502098957651      4.92058897365987
  Cl  2.87433818331518      1.10827497660806      6.77103083180402
  Cl  0.48349810350648      4.89820012161859     17.50074262382906
  Cl  1.55467537998588     10.75106312954217     -1.40232605487400
  Cl  -1.53760614724502     14.09861404771671     -4.28452630598651
  Cl  -2.46292322199696      6.81174696496172     13.43020281205732
  Cl  -0.15001115190537      3.10893972922600      2.84604988414227
  Co  -1.24480421327331      4.22996260439592      4.47430427723835
  N   -2.15235837537552      8.69824298102961     -0.16952665043448
  H   -2.88637696277100      8.57637067351884     -0.85998449558480
  N   -0.10431982983044      3.56583096118856      5.89616607112632
  N   -0.24858822134371      9.49037382726215      0.73543118087023
  N   0.19130375815212      4.10520302615956     10.78930045724881
  N   -0.09878816881532      5.84953167520032      4.06001423452427
  N   -2.34323510375302      4.93416991082148      3.05793204431851
  N   -1.52242222391768      5.55922240349896     10.81595749633139
  H   -2.21487270422386      6.19854462582664     11.19669636247357
  N   -2.10705823416915      5.24226715968430      5.89705212117461
  O   -2.36131037845573      2.91176953544661      4.75044854338898
  H   -4.51823319464599      7.39969527192638      6.81832246944229
  H   -5.02861043531341      4.39325121971958      1.11821239808940
  H   -3.54528123364023      6.96815450131781      9.07368204768585
