74
Coordinates from ORCA-job BIRKOF-OH_1_5_tpss_d4_lanl2dz_631gpol_Co2.opt
  C   -3.87548047774293      6.43384383185828      7.08291041563447
  C   -0.72508260232647      8.35610521570406      1.38499616539947
  C   -1.86991921542947      7.84456306412392      0.75297787221277
  C   -0.15213941334093      7.69430204708390      2.51881950507983
  C   0.25865402482975      3.69488320903674      8.36418291877937
  C   1.39050306360197      2.85700225097439      8.28803709117568
  H   1.96014952316894      2.63377875168633      9.18593394354204
  C   -0.79490138033110      6.51057012909335      2.97105981670367
  C   -1.12068797271589      9.70281309051779     -0.23558692664148
  C   -3.25490852768176      6.24506118849698      8.31064985780069
  C   0.98381073245735      2.64973256612918      5.89955267399081
  H   1.23772075291684      2.26721180301592      4.91311976627954
  C   -1.98126167389395      6.00579156135302      2.31699539707386
  C   -2.54708770743649      6.66344495523936      1.18193288911299
  C   -0.21829647960466      4.29686659785251      9.57470361450662
  C   -0.46720795695037      3.96846826408112      7.17382056229753
  C   -0.49612448238349      4.91844932533358     11.61477676987950
  C   1.13840895862180      4.34873010130282     14.93687204529613
  H   1.98355166518194      3.78134932757191     15.31569502429091
  C   -3.62355180871367      4.34747467360943      2.27068947973406
  H   -4.00012861670942      3.44007611030622      2.73540675286841
  C   -1.35409864090564      5.12337171948825      9.56652845474264
  C   -1.19065720657807     12.93296351573567     -3.03361167125116
  C   1.74465116087989      2.33879797481643      7.04949721848653
  C   0.81374937177570      4.32329147600093     13.58623778230998
  H   1.40282521105159      3.73303878408831     12.88974277739666
  C   -3.34498781048934      5.80488972290936      5.94022360191796
  H   -3.80075299545686      5.92094252511353      4.96026717478245
  C   1.00546501114336      8.13732167759828      3.19162390097029
  H   1.51422717323053      9.03847935885125      2.86045697050416
  C   -1.63448883253919      4.82427351800087      7.18359091238441
  C   -4.24119694625268      4.93321652354631      1.14973167029407
  C   -2.10494924570724      5.42507573514356      8.39214496557413
  C   -1.10584832446493     10.80851786154417     -1.19198854491049
  C   0.08480725731420     11.39160818944933     -1.68398396676250
  C   -2.39148300782949     12.38002336084305     -2.57104519640585
  H   -3.34510314757406     12.77590547175195     -2.90785594150022
  C   0.35592283138998      5.11925303143791     15.80791160971985
  C   -3.70410864120214      6.09142604865618      0.60389515671692
  H   -4.17134997763847      6.55312566363632     -0.26421124714544
  C   1.46005412148877      7.38456353230498      4.26480617117891
  C   -0.73463143431828      5.85401919356366     15.33387324930819
  H   -1.33889147435249      6.45064125427559     16.00980123335299
  C   -0.28091011247938      5.04894268836502     13.05560671565972
  C   -2.33289193347521     11.32948633529101     -1.65833421679527
  H   -3.26304994403228     10.92713072584269     -1.25930507147219
  C   -1.03838604897071      5.81098029364858     13.97174193783050
  C   0.77883620277577      6.21028419350890      4.65448693935288
  H   1.14221607841303      5.60659311689777      5.47997577727966
  C   0.04689991653919     12.44852897585840     -2.59841279633109
  H   0.97182848228235     12.87751407312203     -2.97077609241404
  Cl  2.88175807553006      7.85427822365366      5.15890704276228
  Cl  3.13015989606978      1.30049558776117      6.87639694485875
  Cl  0.73863118471317      5.16996987224802     17.51099204805792
  Cl  1.66204243646788     10.79504061905662     -1.22169336975666
  Cl  -1.23186642976568     14.25715718989063     -4.17481094460696
  Cl  -2.43958720136937      6.78513913945483     13.48574635695727
  Cl  -0.03379783834933      2.95695347746767      2.74996018077780
  Co  -1.42511821249189      3.89908811778244      4.37246876764046
  N   -2.11402175658548      8.72748531415065     -0.27773740717091
  H   -2.79677986667251      8.62309787964196     -1.02145720334194
  N   -0.08783835924932      3.44152542850027      5.97489201395120
  N   -0.27671555933033      9.49758548108662      0.77253031552531
  N   0.30050216264942      4.17789955239862     10.83296020542968
  N   -0.31607501958075      5.79336861707366      4.02294665219301
  N   -2.52910210814784      4.87485878579723      2.83303024763577
  N   -1.51095718673422      5.50806044871263     10.87870450925194
  H   -2.23380114641363      6.10897198108569     11.26498050482877
  N   -2.25995952184263      5.02775179062066      5.99535986946147
  O   -2.66175606841528      2.57589270488581      4.59860597604241
  H   -4.76255387007594      7.05546809589794      6.99428705214863
  H   -5.12775705949775      4.47164975084888      0.72299682812482
  H   -3.65250567248883      6.72334909568394      9.20387391885843
  H   -2.35032837795535      1.75286824063894      4.15838438057885
