36
Coordinates from ORCA-job ARAHAE-oxo_2_3_tpss_d4_lanl2dz_631gpol_Co3.opt
  C   2.49959436450385     12.36283489472747      8.86662850274802
  C   3.12120604359285     12.48546408314975      7.62386373278972
  H   3.31227650373280     13.46630688682593      7.19570008151823
  C   3.51877627842949     11.31551376874614      6.95670601446356
  H   4.00249485376620     11.38632267874324      5.98508506164984
  C   3.33841477223747     10.05790735896752      7.55511056054598
  H   3.69848266124480      9.15199730160611      7.07386485371727
  C   2.71083932862523      9.99857752302451      8.79923077607278
  C   2.59897551018012      8.79487450106080      9.69979805729863
  H   2.36774527749765      7.86575187817074      9.16471451643618
  H   3.55565267361554      8.66934677114447     10.22351770909317
  C   0.16695039561079      8.54848683008886     10.40728222683921
  H   -0.37802315568685      8.42867971021075     11.35120540552729
  H   0.23571024566797      7.56937731754921      9.91780532735047
  C   -0.50530372277759      9.59283420374246      9.51724855790985
  H   0.02427777597505      9.73273619826496      8.56900144091471
  H   -1.54991685786506      9.33095442721597      9.30571150094149
  C   -0.73354473414048     12.16627031976855      9.60236512229934
  H   -1.80968161805455     12.25539334507513      9.40612070024112
  H   -0.19678264686491     12.18120135375425      8.64796661095213
  C   -0.24494866398447     13.25295383443631     10.55908202745718
  H   -0.35170292235939     14.25792605188671     10.13280353862145
  H   -0.79252683378648     13.21718446576078     11.50833469749248
  C   2.18178448115946     13.47512900807076      9.83255046971630
  H   3.10571888675466     13.74661355450496     10.35984095227499
  H   1.77818416711416     14.37342263226604      9.34965526357095
  Cl  3.44688143760011     11.15618514540620     12.02212948214655
  O   0.79485451729674     10.90267673144869     12.63565040926139
  Co  1.38948566660781     11.00584512325202     11.09018568034694
  N   1.55019477143461      9.04974845804397     10.75724554653123
  H   1.86392783903186      8.62398185118630     11.63979707502206
  N   -0.42846904841336     10.87231170069180     10.28717544912570
  H   -1.03789208088383     10.79021440133532     11.11355193651066
  N   1.20758535600669     12.97822580963634     10.87659122160726
  H   1.45503589904119     13.39744343537733     11.78300433838833
  N   2.25984257808982     11.13440644485934      9.38437515261724
