36
Coordinates from ORCA-job ARAHAE-oxo_2_1_tpss_d4_lanl2dz_631gpol_Co3.opt
  C   2.51237441154549     12.36465196065865      8.86002386366037
  C   3.14113315655608     12.48901448061776      7.62099358316065
  H   3.33289487746593     13.47023539228171      7.19357316210180
  C   3.54304499879646     11.31981917070158      6.95514088908807
  H   4.03207586166165     11.39158367832156      5.98606640343164
  C   3.35727794747881     10.06151672835649      7.55029744101718
  H   3.71685007154840      9.15570058642600      7.06810281344595
  C   2.72250849346256     10.00137847207155      8.79083774228831
  C   2.59303926729143      8.79151364115515      9.68186800349559
  H   2.34565306503959      7.87233005371436      9.13673607833053
  H   3.54808991795243      8.64064558345170     10.20178553659195
  C   0.16422149445923      8.54610495678331     10.40980678748144
  H   -0.36839736640842      8.42360010643527     11.36040530663363
  H   0.22891168171728      7.56844696766177      9.91689908694392
  C   -0.51882593425232      9.59207776099271      9.53131914191417
  H   -0.00016095741730      9.73367894954101      8.57699073845982
  H   -1.56670055356532      9.33332662267097      9.33241528444738
  C   -0.74453051766271     12.16050316845526      9.61156891174315
  H   -1.82266306543386     12.24502211014112      9.42430432364800
  H   -0.21530070917051     12.16951885343352      8.65260367901946
  C   -0.24849677953103     13.25383074007990     10.55548755252435
  H   -0.35690139450332     14.25567599623824     10.12231018888730
  H   -0.78804031069890     13.22549825804203     11.50955310334601
  C   2.17827936636967     13.47852573960144      9.81972657026844
  H   3.09586409707265     13.76686286259155     10.34905846620351
  H   1.76655282142985     14.36894080743239      9.32896247309132
  Cl  3.39603489982983     11.15079791262961     12.11310181662897
  O   0.83144645777316     10.90682803863842     12.64200035169121
  Co  1.38496354585383     11.00587120206758     11.07492251991988
  N   1.54930916196728      9.05181173687274     10.74334166219626
  H   1.86836793833988      8.63524400135272     11.62834698682143
  N   -0.42922231499670     10.87117069104439     10.30146432683345
  H   -1.02563298127731     10.79179690465232     11.13835986084841
  N   1.20536396938230     12.97684414451792     10.86280278764658
  H   1.45507973171047     13.38841665281756     11.77208056499783
  N   2.27163565021335     11.13631506754937      9.37764199119176
