37
Coordinates from ORCA-job ARAHAE-OH_2_2_tpss_d4_lanl2dz_631gpol_Co3.opt
  C   2.51123131019098     12.36379496538068      8.85225169410305
  C   3.12154619036270     12.48098176924815      7.60297297716029
  H   3.30366518310327     13.46176977878107      7.17045745754633
  C   3.51642730705643     11.31150670290290      6.93607963031395
  H   3.99065294747716     11.37864050483542      5.95954475392764
  C   3.34070396042788     10.05849741336776      7.54278393395339
  H   3.69349754439464      9.14863471744370      7.06331670445633
  C   2.72492958864658     10.00286590880220      8.79317219237300
  C   2.61912629766353      8.80173385348747      9.69299503861501
  H   2.38912723778771      7.87060781628181      9.16110139407209
  H   3.57572295909077      8.68060339715432     10.21808649488685
  C   0.18560059229449      8.55863328288070     10.41104312264884
  H   -0.34445209901334      8.43343642900270     11.36226107605267
  H   0.25490099651260      7.58270706482834      9.91535558836680
  C   -0.50411630680069      9.60492996725563      9.53872058632402
  H   0.00514797104761      9.74343378715093      8.57857462966283
  H   -1.55236894205796      9.34159803145882      9.34788368462989
  C   -0.73257543817936     12.16399185191929      9.62011113282155
  H   -1.81238074069143     12.25088760341519      9.44401634014361
  H   -0.21559613536892     12.17605660230781      8.65410687107585
  C   -0.22792141950135     13.25842031633530     10.55758272540098
  H   -0.33692473261907     14.26082381129905     10.12592030396948
  H   -0.75808897115736     13.22755039146459     11.51638170698745
  C   2.19608173147489     13.48176735487475      9.80810597487875
  H   3.12023013882130     13.75933149469168     10.33189078923392
  H   1.78715344341526     14.37504692203522      9.32064935173269
  Cl  3.42080620628153     11.16413160496425     12.06570797638917
  O   0.60222615359510     10.89442568091672     12.64929894014909
  Co  1.41321485898432     11.01652327083339     11.08551102519263
  N   1.57068524709744      9.06501088237516     10.74562521435057
  H   1.88919413876017      8.64756544333940     11.62965175366453
  N   -0.40409309560844     10.88029276351774     10.30712923669676
  H   -0.97432319254664     10.80156828763973     11.16341799944522
  N   1.22853097028430     12.98201766753762     10.85441920076921
  H   1.48641994560650     13.39830531443390     11.75857300861417
  N   2.28017440138231     11.13910018057645      9.38286755657129
  H   1.28680375178508     10.93057716525992     13.36900193281989
