37
Coordinates from ORCA-job ARAHAE-OH_2_6_tpss_d4_lanl2dz_631gpol_Co3.opt
  C   2.52943020664775     12.35857410056250      8.87819680345286
  C   3.03416226847554     12.47322375938722      7.58050265231496
  H   3.15359943087159     13.45059840439617      7.11885959069170
  C   3.39077753862135     11.30213933812117      6.89549894536249
  H   3.78077719200746     11.36292219277575      5.88181814051436
  C   3.25266616520479     10.05307679461373      7.51930523508099
  H   3.54365901044123      9.13753016921637      7.00960952575993
  C   2.74079784229377     10.00999092725484      8.81823925561669
  C   2.63781495052729      8.75658219923958      9.66178548333106
  H   2.40090135094572      7.87550623765901      9.05036189630792
  H   3.60610518526777      8.58104383142295     10.15010326842366
  C   0.21899758068202      8.52800795243904     10.37471276288112
  H   -0.33007852535546      8.38924333092217     11.31325414572144
  H   0.22896133917431      7.57223570595886      9.83265852333407
  C   -0.42345269852496      9.62962669491518      9.53368115876697
  H   0.10996504510498      9.78445219286776      8.58888385824417
  H   -1.46580027227037      9.37106254701568      9.29807499226920
  C   -0.65083248153970     12.14901482637278      9.61366839568435
  H   -1.72481419184021     12.23415809680908      9.39450787472052
  H   -0.10877021158861     12.14796282400821      8.66112462883359
  C   -0.20143129318201     13.29323292006099     10.52011625886557
  H   -0.36756919408493     14.26723593327443     10.03927529621529
  H   -0.75143367494083     13.27456406796709     11.46802472299986
  C   2.21054282087757     13.52988964837038      9.78316374840549
  H   3.13663483271770     13.85423424802252     10.27698480686688
  H   1.81056569661116     14.38224637550005      9.21764978878599
  Cl  3.62300356050320     11.16347360176070     12.30497829757448
  O   0.45987773272498     10.89931167071767     12.81402827764681
  Co  1.61850105712445     11.02572096924719     11.38941178737661
  N   1.61725951830597      8.92246538761072     10.74147698456532
  H   1.91435731577232      8.39353104696225     11.56971699466937
  N   -0.34569819482137     10.88290367064802     10.31908119532131
  H   -0.92391329807124     10.80279389362861     11.16718308919975
  N   1.24967021016109     13.13025880875024     10.85667283920898
  H   1.46167586550651     13.65676166905523     11.71214098323930
  N   2.37936465166834     11.14593719142475      9.45451394369195
  H   0.83468566798077     10.90625677104059     13.72730384805450
