41
Coordinates from ORCA-job ARAHAE-CH3OH_2_1_tpss_d4_lanl2dz_631gpol_Co3.opt
  C   2.50653117251292     12.41601421313092      8.61362170291309
  C   3.00393302003943     12.51575090495579      7.31323269139157
  H   3.09311153983666     13.48751990717974      6.83384939477730
  C   3.40882090485785     11.34432710228694      6.65601858094870
  H   3.79375930375316     11.39917627984316      5.64029551046664
  C   3.36194863971853     10.10822222179348      7.31899923386824
  H   3.73061580111718      9.20229888200681      6.84421828917657
  C   2.85641017148589     10.06615522358515      8.61841955664088
  C   2.89749069933246      8.90369811630152      9.57387943590711
  H   2.72744148020227      7.93437905040399      9.08991084870694
  H   3.88809508112467      8.89223005944386     10.04775426301638
  C   0.53131890780217      8.54252528972899     10.37186253789871
  H   0.03384820085161      8.35427252386951     11.33016604762239
  H   0.63569926118103      7.58172246047402      9.85294974355026
  C   -0.25877383065223      9.55395857110539      9.54245379254373
  H   0.18472686775137      9.70882231191497      8.55312987312182
  H   -1.30245217731000      9.24036557494311      9.41275833460750
  C   -0.62352438081161     12.09430849536544      9.60495489159728
  H   -1.71495748666450     12.11068385480509      9.49384115394882
  H   -0.16854270383586     12.11522606050691      8.60856358548385
  C   -0.12663570014671     13.23492944796078     10.48933085665520
  H   -0.33098928352685     14.21916701628801     10.05003388944000
  H   -0.59671230147470     13.19184764821689     11.47891243314469
  C   2.20324001775790     13.55107500860759      9.55596100799787
  H   3.15228139869217     13.89236228481118      9.98990339631647
  H   1.71737557803299     14.40353811082695      9.06586658677018
  Cl  3.73302437472783     11.39667118651972     11.75572728747822
  O   1.05788242518178     11.21113650866311     12.81118381615566
  Co  1.67607844748317     11.09932774825069     10.91054790106710
  N   1.88893325338092      9.13225632616231     10.67513786029502
  H   2.26764558121304      8.70395823151574     11.52776405948818
  N   -0.17010713749917     10.84413623332352     10.29143625127339
  H   -0.71781577386339     10.75369207446874     11.15828328060924
  N   1.35461103060696     13.04246246178329     10.69714786882969
  H   1.64447676532542     13.53730162379190     11.54926751626018
  N   2.38998266999687     11.19902283512339      9.19585165922833
  C   0.55280316093994     10.11128055063839     13.64620599994451
  H   1.27197207610193      9.28558315317027     13.67682949583926
  H   0.38436775582619     10.50749036576896     14.65159382093732
  H   -0.40024409905399      9.79494189059581     13.21654119517595
  H   1.92257928800463     11.50064218986725     13.20627434890510
