37
Coordinates from ORCA-job ARAHAE-OH_2_4_tpss_d4_lanl2dz_631gpol_Co3.opt
  C   2.53821181120308     12.36434300380330      8.90846628723847
  C   3.09791467654754     12.47749709491714      7.63397738073952
  H   3.23617794318753     13.45937364685570      7.18734012471509
  C   3.48276522329984     11.31365375936918      6.95584235124650
  H   3.91990903179442     11.37959384072472      5.96202828321373
  C   3.31167838554657     10.06514314246735      7.56780872209488
  H   3.61851233416454      9.14872256381222      7.06907302052041
  C   2.74629262423630     10.00843717873195      8.84343814285345
  C   2.61170269087185      8.73691679690165      9.65060201352908
  H   2.37330130138602      7.87787242333565      9.00919798974777
  H   3.57067576418748      8.53442715086363     10.14639760750908
  C   0.18687725103437      8.49928623776361     10.36351962467556
  H   -0.34699738740089      8.32656797245534     11.30497998597991
  H   0.18485213400663      7.56476841056180      9.78591878696691
  C   -0.46485890204743      9.62948323241110      9.56923628653818
  H   0.03880217430603      9.79571135605319      8.61027497548543
  H   -1.52219351481571      9.40856569777080      9.37117578251726
  C   -0.68470565588537     12.13477908562870      9.63660494576988
  H   -1.76486548072083     12.17741188917081      9.44332613328630
  H   -0.16192611721474     12.11149911644796      8.67379804772581
  C   -0.23835396724958     13.31781369902109     10.49362593487920
  H   -0.40366289223246     14.26636902309832      9.96469301949305
  H   -0.79219588888360     13.34572114031425     11.43885784184578
  C   2.18924286364680     13.54589488729353      9.78477290147208
  H   3.10066001706921     13.88056901218203     10.29834890926764
  H   1.80512798011850     14.38702163172876      9.19213558827967
  Cl  3.46999341716510     11.16531071499756     12.22321191598395
  O   0.62405691424103     10.89663507834585     12.76219084447528
  Co  1.51752244261139     11.02238584686412     11.24273327426979
  N   1.58205152340989      8.89566676530935     10.71639953912670
  H   1.88251095602362      8.40804691726356     11.56683648968639
  N   -0.33856525415654     10.88229010503766     10.36970849950144
  H   -0.91853747852442     10.80716123223786     11.21919056685783
  N   1.20578424320652     13.15210399010861     10.83415254082664
  H   1.41922522316564     13.63803635870956     11.71142539378488
  N   2.35370356266502     11.14445103757385      9.47278210056809
  H   1.22027005003660     10.92823895986802     13.55249814732811
