41
Coordinates from ORCA-job ARAHAE-CH3OH_2_3_tpss_d4_lanl2dz_631gpol_Co3.opt
  C   2.56208861239264     12.40118179612437      8.68556669120972
  C   3.06519146199285     12.48501106218493      7.38432281268623
  H   3.14368239305925     13.45341743666686      6.89559247459851
  C   3.47126539619453     11.31180541907129      6.73626721226163
  H   3.86570339862715     11.35659882318288      5.72359942543938
  C   3.37593780582222     10.08097139017289      7.39929307265346
  H   3.70033371509609      9.15879629528643      6.92280596061186
  C   2.86534730664077     10.05165555584435      8.69850593166414
  C   2.80688923907588      8.81129293930833      9.56296456342810
  H   2.62403208662815      7.91397005221000      8.95660046303987
  H   3.77983705040417      8.69495059371637     10.05890682880562
  C   0.40466558601067      8.50666963647596     10.26682384576194
  H   -0.12760084866139      8.27475493137544     11.19732484072899
  H   0.42974040146649      7.59133719246053      9.65969713225324
  C   -0.29996119745768      9.63181623046198      9.51345640399368
  H   0.17138614311133      9.81898154192313      8.54225187876220
  H   -1.35788564094551      9.39313351223044      9.34136524447782
  C   -0.60674842244466     12.11494071854531      9.56429312334158
  H   -1.69391714170280     12.10004281374683      9.41169454112112
  H   -0.12212615856636     12.08251949205643      8.58184275271634
  C   -0.17638214997494     13.34317001895473     10.35966081341624
  H   -0.41154413026572     14.26313880377250      9.80655744211006
  H   -0.69752681630235     13.38091914353288     11.32377123470664
  C   2.19101908679159     13.60756447288826      9.52312822445570
  H   3.11237705929105     14.00891554275963      9.96606298157552
  H   1.74528919791634     14.39520750851797      8.90048875249355
  Cl  3.68198578891074     11.35519479698195     11.94841320205882
  O   0.87536813672084     11.17531877019328     12.90884285846144
  Co  1.69702991662471     11.11144605003259     11.06761195950441
  N   1.77921741260101      8.95913726860011     10.63442001410096
  H   2.10200028798897      8.44032014901071     11.45633710580714
  N   -0.17525905803812     10.89038829845528     10.31322708166065
  H   -0.74480397422071     10.81354324795311     11.16796801691597
  N   1.28371735884732     13.23311998594155     10.64745088422198
  H   1.51483410379610     13.82628087068456     11.44991719915241
  N   2.45688528886416     11.19683938864376      9.29343768386821
  C   0.94208363429832      9.97468295186964     13.77341867183149
  H   1.97947797653444      9.63459489947995     13.85237696632950
  H   0.53851970078241     10.24837864497034     14.75193457508268
  H   0.30040286562755      9.22787421855177     13.30331376173255
  H   1.40769712646243     11.86459753516001     13.36916537095802
