36
Coordinates from ORCA-job ARAHAE-oxo_2_5_tpss_d4_lanl2dz_631gpol_Co3.opt
  C   2.52013420104441     12.36287275639278      8.92595731285616
  C   3.08592858531882     12.47971509004422      7.65500444798809
  H   3.23228741137030     13.46118593514764      7.21033109442480
  C   3.47086426839063     11.31434507741924      6.97689648010742
  H   3.91320824464842     11.38290662999192      5.98547702688062
  C   3.30050927045866     10.06167708418250      7.58348875155388
  H   3.61582603779795      9.14919609377567      7.08305358127927
  C   2.72850931963476     10.00209468947588      8.85550679107782
  C   2.59746631237770      8.74149240208450      9.67970355483424
  H   2.36734672690537      7.86834062520239      9.05479657207720
  H   3.55462807595352      8.55495186985374     10.18611791839664
  C   0.16967813597728      8.50447489177700     10.36714750736564
  H   -0.38357975366045      8.34414077976981     11.29991308115181
  H   0.18509787039029      7.55971274042668      9.80697633198174
  C   -0.47210203657762      9.61827180956745      9.53835938919869
  H   0.05798032308662      9.78236455954474      8.59374787605463
  H   -1.51940132484748      9.37685768760173      9.31185611306512
  C   -0.69326844226700     12.14027201659146      9.61415612610389
  H   -1.76768954189670     12.20871542567025      9.39651061137042
  H   -0.14734017405881     12.12763947672563      8.66445987183211
  C   -0.25139227200904     13.29830424888477     10.51027015364200
  H   -0.40102703372563     14.26185917022341     10.00454946583830
  H   -0.82106242594457     13.30740371499872     11.44684266150132
  C   2.17640413395199     13.52917511232837      9.82381573518435
  H   3.08927013625323     13.84892694931830     10.34519507807330
  H   1.79362790268083     14.38530052691932      9.25244655372483
  Cl  3.56681393585664     11.16012608745906     12.13526388142390
  O   0.75042735418542     10.89477819999249     12.70852927420915
  Co  1.52016447985515     11.01317878241801     11.25957855374998
  N   1.55755194323428      8.91086965304557     10.74154151528227
  H   1.84730186182309      8.41966353166153     11.59487068085302
  N   -0.38959787425873     10.87358783775979     10.33447550174492
  H   -1.00815476145823     10.79389867700099     11.15269127802050
  N   1.18759189340175     13.11714900048471     10.86907250468529
  H   1.39131484091366     13.60061836435026     11.75120687458596
  N   2.33078237519344     11.13903250190919      9.48108984788038
