35
Coordinates from ORCA-job ARAHAE_2_1_tpss_d4_lanl2dz_631gpol_Co3.opt
  C   2.51249041615776     12.37419510209505      8.87170801639573
  C   3.12255986120418     12.48898240890623      7.62166587455190
  H   3.30849527363980     13.47197601204686      7.19540180222062
  C   3.51301916978308     11.32030765888698      6.94961899675338
  H   3.98813138669134     11.39221771142210      5.97379999914420
  C   3.33446742223276     10.06241825369780      7.54613586436355
  H   3.68541011070978      9.15461943293016      7.06102272012307
  C   2.72110655359501      9.99255133625395      8.79780406135959
  C   2.59934027365828      8.78601847575272      9.69334218991634
  H   2.36486149303516      7.86557152082619      9.14538157083107
  H   3.55854506863583      8.64865959486151     10.21013456191146
  C   0.17791263360744      8.54049578364260     10.40779657500427
  H   -0.36299604764461      8.40566647941992     11.35300912039886
  H   0.24215872074090      7.56494565180716      9.91041524938152
  C   -0.51091203962344      9.58926440018501      9.53552883993401
  H   -0.01075787450937      9.71762376480800      8.56894596488891
  H   -1.56425540880172      9.34033838634749      9.35637610114343
  C   -0.73126857132966     12.15918590799601      9.60888041560189
  H   -1.81160079589823     12.23240590759366      9.43239591583433
  H   -0.21502674687771     12.17459322707646      8.64248482298445
  C   -0.23572007788366     13.25930005152300     10.54653075931457
  H   -0.34063864755251     14.25789628887712     10.10492422035096
  H   -0.79169048723504     13.24542651366063     11.49244860933319
  C   2.18766153869579     13.48311657912528      9.83931700590571
  H   3.11079866370654     13.75291659468356     10.36948601940044
  H   1.79319687784849     14.38072334310459      9.34838593543892
  Cl  3.25544819122772     11.13999570285128     12.18450347833560
  Co  1.44359958893945     11.01231591543054     10.99593029320460
  N   1.55833632052406      9.05320902028069     10.75536914984859
  H   1.87891245921224      8.60991721253007     11.62648738038774
  N   -0.37889872660963     10.87421412540743     10.29501254733764
  H   -0.97493568423793     10.79855684307924     11.13632443532118
  N   1.21289437453750     12.97406626503663     10.87646010234973
  H   1.45415414227817     13.41262544951123     11.77510998477381
  N   2.28280056754218     11.13738307834247      9.37716141595443
