37
Coordinates from ORCA-job CPYFEM-oxo_0_5_tpss_d4_lanl2dz_631gpol_Fe2.opt
  Fe  -3.13529149137472      4.25944199774810      5.49641997231636
  Cl  -1.61217413819389      6.01509182337110      6.24825890377255
  Cl  -4.67024324342452      2.69196489744050      4.41807694359355
  N   -1.47129821000659      3.17860488525483      4.71917757884447
  C   -0.37816473802895      3.05852709416500      5.50171363449808
  C   0.73442355962184      2.31749537250493      5.09909014035438
  C   0.71258371830555      1.68560092258085      3.85035623630240
  C   -0.42776528416405      1.80951070647560      3.04813833504059
  C   -1.50585192730186      2.56039878407901      3.52051054188307
  N   -4.80497117639227      5.39062914875695      6.18019836929861
  C   -4.82585690583708      6.73924885482131      6.14633356996690
  C   -5.89920837214557      7.47226900940734      6.65593783578851
  C   -6.97438418593808      6.78525198829614      7.23123957729878
  C   -6.93795062897547      5.38673272013830      7.27668663018700
  C   -5.83486061365150      4.72080168033059      6.73943585784414
  N   -3.21900082986332      5.33494283613179      3.67565288352999
  C   -2.09164731694340      5.83461745015111      3.12067659575080
  C   -2.10407677336541      6.54021371981162      1.91641332747671
  C   -3.32620531405164      6.75919340941726      1.27125989772831
  C   -4.49359629889269      6.25178988848283      1.85229662390075
  C   -4.39922765127845      5.53627902320631      3.04700441251286
  O   -3.07237282024425      3.42605324600685      6.90108948015197
  H   -0.42502464111423      3.58424534946855      6.45148923789832
  H   1.59623550049817      2.24158932129068      5.75779889628770
  H   1.56633265328417      1.10134510615304      3.51100253226561
  H   -0.49277230675489      1.32740905340662      2.07549564881557
  H   -2.43503973082316      2.66680766528325      2.96635855915235
  H   -3.94290889863198      7.21104596690241      5.72248217039932
  H   -5.87971196576846      8.55856482391175      6.60858156191508
  H   -7.82222333867339      7.33020968344713      7.64307195582569
  H   -7.74732857232628      4.81274011809281      7.72148286714358
  H   -5.74563585988971      3.63792685461430      6.73121339754108
  H   -1.18015208878124      5.67179163158614      3.68780425154607
  H   -1.16973274137717      6.91518200126603      1.50559073734710
  H   -3.36812843913189      7.31367804754644      0.33521786762529
  H   -5.46697835886494      6.39465905721431      1.38917055445483
  H   -5.26449056949862      5.08344586123806      3.52167241374149
