37
Coordinates from ORCA-job CPYFEM-oxo_0_3_tpss_d4_lanl2dz_631gpol_Fe2.opt
  Fe  -3.13298633550718      4.25562059684285      5.50031398327060
  Cl  -1.66056995396860      5.92801754909787      6.24510449135451
  Cl  -4.61481197128871      2.72881048639958      4.49957233083360
  N   -1.59296958066162      3.23218780186436      4.78418147771126
  C   -0.53784809116923      3.01463778602484      5.60247585428808
  C   0.57505314156907      2.28448479937982      5.18493330667467
  C   0.60461390508905      1.76648128715631      3.88545782318199
  C   -0.49391948129849      1.98907142047710      3.04842649523856
  C   -1.57920355835443      2.71965230566569      3.53342250908496
  N   -4.67679106972494      5.31200901631903      6.15402033934537
  C   -4.75512213536225      6.65345986905703      6.00709064920195
  C   -5.83941847296461      7.38572807090130      6.49196595809726
  C   -6.86774912710964      6.71528445010677      7.16268774107980
  C   -6.77132049855597      5.32887768036648      7.32565037188101
  C   -5.66376819625883      4.65725371379796      6.80817132060625
  N   -3.21841821530282      5.33448103567147      3.66465423030767
  C   -2.09914246448102      5.87112556200045      3.12778371797674
  C   -2.11400210795968      6.58859503017688      1.93029176712820
  C   -3.33236157760999      6.77845602422165      1.26878039580938
  C   -4.49227001163027      6.23063399693948      1.82786240261465
  C   -4.39375909942213      5.50847038017259      3.01857733431914
  O   -3.06644274500140      3.42540196949639      6.90965260916713
  H   -0.62311899042066      3.44600397483672      6.59416463665845
  H   1.40034989634187      2.13081950583487      5.87583399576866
  H   1.46210955537532      1.19468889056694      3.53495684909029
  H   -0.52609931587784      1.59545342025012      2.03527958556998
  H   -2.47514746044679      2.89135806580793      2.94550195667421
  H   -3.91029610208397      7.12333074795554      5.51377774887913
  H   -5.85989164069147      8.46385324114005      6.35199284911252
  H   -7.72225496603610      7.26246697676855      7.55704114813936
  H   -7.54011398667202      4.76378305864598      7.84693211327350
  H   -5.52860337063291      3.58468182049862      6.89791193799013
  H   -1.19063126327641      5.72640337625355      3.70560735913964
  H   -1.18509199221230      6.99450919237518      1.53654109124411
  H   -3.37692915506047      7.34106666362170      0.33767789925866
  H   -5.46261535426870      6.34944766001843      1.35142326099768
  H   -5.25315820706376      5.02869257328982      3.47868045903075
