88
Coordinates from ORCA-job AXAJUE-CH3OH_1_4_tpss_d4_lanl2dz_631gpol_Mn2.opt
  Mn  6.19060845884559      1.60636675394444      5.30939162488765
  S   5.86901458890231     -1.26495836711241      8.42299199183787
  N   5.93025794647593      0.94892323940924      3.42043227698849
  N   4.59245955220734      2.67857601545334      4.81637497088225
  N   3.76542486782990      3.57545722683451      5.42437201918522
  N   2.67836358386792      2.63044369180804      3.71925763710809
  N   0.37883875911507      4.27550900498103      4.29294887755670
  N   5.03128179810882      0.11263534937962      6.09532514417717
  C   6.76054038511541      0.15576608535583      2.70652133762846
  H   7.73617493230474     -0.01900619135154      3.15429694997364
  C   6.37181211501093     -0.44138895816338      1.50830359850418
  H   7.07617558971237     -1.06770233751972      0.96696962402032
  C   5.06345367356279     -0.24381708788988      1.03917788409151
  H   4.72635461006966     -0.71912094183146      0.12082374413273
  C   4.18981996789617      0.56713848873463      1.76436394756106
  H   3.17350278736387      0.73662773086735      1.42576034800361
  C   4.65608721328377      1.17373769767310      2.94075991309322
  C   3.94686423324063      2.11475284149100      3.78032584111108
  C   2.61071390908866      3.54432690223073      4.76498317467375
  C   1.44264935246309      4.35588878802794      5.11806237610082
  C   1.47648050100673      5.16085461491082      6.27156165986472
  H   2.36588935349996      5.18310582529580      6.89533184573394
  C   0.34274188124717      5.91554713107126      6.57788643368286
  H   0.32784596183512      6.55056727842386      7.46140568025396
  C   -0.77220293860457      5.83928114188150      5.73329666077489
  H   -1.67493286661179      6.41016305416592      5.93887851956604
  C   -0.70157540068596      5.00683946539657      4.60794724218422
  H   -1.54547733338819      4.92004216162478      3.92364028720942
  C   1.64837161746807      2.17409283219590      2.81385282345215
  C   1.41211066198038      2.86767427169143      1.62251094559589
  H   1.95043172224062      3.78909831479903      1.41312414777154
  C   0.47156325227767      2.36155583996522      0.72412649668164
  H   0.28057064691578      2.89821908154240     -0.20449692511876
  C   -0.23511065250200      1.17257761847526      0.99762443427719
  C   0.03245596589246      0.49853593363282      2.20153412301350
  H   -0.49881670376137     -0.42413739810711      2.43049153672418
  C   0.97301093459323      0.98959678797726      3.11457479577580
  H   1.18386554821078      0.46203860605803      4.04265079915716
  C   -1.26447019837488      0.64819045893006      0.02079575032533
  H   -1.58240049358786     -0.36787378133601      0.28226180334821
  H   -0.86943317893797      0.63291826430561     -1.00387730122099
  H   -2.15830241330501      1.28879752677480      0.01488676663258
  C   5.36158481108857     -0.49697759653872      7.08149259721373
  N   6.58365609949585      2.37183648162079      7.17741791067259
  C   5.80245819168366      3.26439840207599      7.81931717986471
  H   5.00815351955267      3.70467483005722      7.22090920196244
  C   6.00014436206573      3.59322335344586      9.16235440283208
  H   5.34945855247708      4.32261879995741      9.63770726977980
  C   7.03749153705914      2.97467023415870      9.87082845962010
  H   7.21019314574793      3.20835769476426     10.91889405661632
  C   7.84717727253901      2.03887571467922      9.22360673976615
  H   8.64551482375855      1.52741577723687      9.74957951351456
  C   7.59222283280375      1.75757623569151      7.87637234653612
  C   8.30345224305327      0.81646657738919      7.02978027272585
  N   7.90683532308426      0.67107907412952      5.75847845594450
  O   7.51383812767533      3.40651463779160      4.42576940837341
  N   8.68802431674987     -0.26704780157831      5.14849294954411
  C   9.56274053743959     -0.68392025936466      6.06027362853005
  N   9.36568023885536     -0.01264935532902      7.25847257274753
  C   10.00790643689931     -0.22466543809774      8.53705820727435
  C   9.51265594209477     -1.22417860135035      9.37863626011646
  H   8.68001881055535     -1.84349946136396      9.05355764974279
  C   10.09673718090900     -1.38906579037189     10.63771081666355
  H   9.71568359789450     -2.16434832326634     11.30119021856683
  C   11.15872513973986     -0.56915149254842     11.06408767014923
  C   11.62570043686624      0.43082564398953     10.19049062573623
  H   12.44727655383775      1.07450463162429     10.50192479094917
  C   11.05919932342130      0.60880405067800      8.92508115003672
  H   11.43058214479775      1.37233764107607      8.24520264768079
  C   11.79134445575736     -0.77322390388118     12.42322454111758
  H   12.42898980770629      0.07489572397825     12.69971602627786
  H   11.02809451095082     -0.90007299304160     13.20244010942874
  H   12.41614833651279     -1.67841761214524     12.42949595995046
  C   10.58579107900872     -1.70525238821060      5.81940438556517
  N   11.62042355211971     -1.73470597936870      6.68508686706460
  C   12.56498645534776     -2.66570756059112      6.47869263824365
  C   12.52983383517932     -3.58424728275810      5.42015575505405
  C   11.45159008655187     -3.53558611576666      4.52785178408091
  C   10.45254281873449     -2.58018612655556      4.72682327252030
  H   9.58644277605881     -2.50905000048028      4.07404902664272
  H   11.38599600270106     -4.23508809945573      3.69689121391514
  H   13.32527585933255     -4.31677358866006      5.30264049460914
  H   13.38756293028397     -2.66932645495983      7.19373247493469
  C   8.93610750738574      3.49101248356093      4.66652620471528
  H   9.35141383320161      4.39423222181412      4.20138514048533
  H   9.04918236024073      3.56013430995274      5.75139231525926
  H   9.46156283507399      2.59849173724480      4.29962296747919
  H   7.36582526383290      3.36796500676947      3.45988001229177
