88
Coordinates from ORCA-job AXAJUE-CH3OH_1_2_tpss_d4_lanl2dz_631gpol_Mn2.opt
  Mn  6.41394844688889      1.82874314547574      5.21825087621736
  S   5.74909803473237     -2.06931532390343      7.52549252151566
  N   5.98900409648976      0.96556428139598      3.45807690315582
  N   4.65384840631914      2.63039524797572      4.84447136886553
  N   3.83877221354476      3.53093025701957      5.46292202518495
  N   2.70825627232562      2.55222814613544      3.80666646054729
  N   0.44216024707786      4.24397884074658      4.37442006918563
  N   5.55569092216014      0.36764455691291      6.10540117477204
  C   6.81694207272927      0.15293777762307      2.76038183886869
  H   7.81748649303795      0.04231871341736      3.17254962842990
  C   6.40366683485296     -0.53770490616543      1.62085345603569
  H   7.10912326615893     -1.18063921876113      1.10060327739361
  C   5.07883056494433     -0.40601719212567      1.18040687976323
  H   4.72754999455467     -0.94570660471230      0.30396128561867
  C   4.20710749106547      0.42545242137523      1.88515842915727
  H   3.17550221902828      0.55008986022221      1.57339440168563
  C   4.69086415799577      1.10430345762067      3.01238791478374
  C   3.98116319663453      2.04580408928523      3.84303509925952
  C   2.66284018730329      3.47830318086752      4.83941505424269
  C   1.49697600329100      4.28230155275886      5.21453267823011
  C   1.52409314207989      5.04016119282823      6.39949794269718
  H   2.40383832877030      5.02327613486373      7.03711685988003
  C   0.39468150766907      5.79540807808407      6.72068627536343
  H   0.37444768772916      6.39461740137216      7.62879290869420
  C   -0.71023861859178      5.76385192087367      5.86030135415947
  H   -1.60961115569596      6.33593021637616      6.07695811209649
  C   -0.63485336376951      4.97322154535702      4.70531118750183
  H   -1.47178347769715      4.92073367199649      4.00902873090142
  C   1.66382906205423      2.08699412116755      2.92252643663354
  C   1.43556505314494      2.74881833908625      1.71206733247808
  H   1.99144000985002      3.65243864502669      1.47299836223869
  C   0.48030994128534      2.23550885182988      0.83304879084197
  H   0.29604417352269      2.74696467138664     -0.11094717816024
  C   -0.24997770080404      1.07135988429362      1.14612534984313
  C   0.01024306342136      0.42776443629412      2.36868580773101
  H   -0.53797639348088     -0.47700986060106      2.62734645796158
  C   0.96568057477844      0.92596010646242      3.26175511087643
  H   1.17065952981935      0.42175479086723      4.20394022471269
  C   -1.30281818684419      0.54347547765142      0.19667826369887
  H   -1.53075223495184     -0.51019044446663      0.39722265055690
  H   -0.98075364082652      0.63552976398327     -0.84862380528593
  H   -2.23880059706439      1.11196106299209      0.30138346991875
  C   5.65047933770455     -0.66190439159082      6.71350781735105
  N   6.79720742437590      2.61930882938934      7.01489280649247
  C   6.10836269465758      3.62422878244586      7.59993078205865
  H   5.33306524157498      4.07533346672319      6.98630548689617
  C   6.34377087567528      4.02240175556671      8.91664591642036
  H   5.75919272967845      4.83436030101029      9.34177904357831
  C   7.31634656505306      3.35425804541194      9.67408208674122
  H   7.50682358451361      3.63589960254961     10.70715870614175
  C   8.04176338868238      2.31646485750591      9.08695438718338
  H   8.80504434413759      1.77885799797149      9.63988339575353
  C   7.76766179442212      1.98082515588343      7.75446644222523
  C   8.45269031403947      1.00750096081630      6.93877839920852
  N   8.12154843610985      0.93175763196596      5.64227847441484
  O   7.34621087199310      3.38364261052004      4.25502206751082
  N   8.92617307422446      0.01136269523203      5.03148972681484
  C   9.72993014544329     -0.47776928236366      5.97351309681821
  N   9.46940286717745      0.12786906967233      7.19376609437300
  C   9.93107856340871     -0.22778650308418      8.51849861880473
  C   9.08866433644025     -1.00671603878960      9.31712684217620
  H   8.14148424191148     -1.37168565107395      8.92030362407488
  C   9.48659785839419     -1.29445257487973     10.62764362944979
  H   8.83680431469240     -1.90150515702296     11.25650484738754
  C   10.70327620077869     -0.81410124089035     11.14316002413385
  C   11.52326664213811     -0.02846752579069     10.30797610860071
  H   12.46958967968255      0.35246828351201     10.69019577940359
  C   11.14854586670441      0.26768258261767      8.99590215408329
  H   11.78727627757838      0.85931678169872      8.34605426872568
  C   11.13867169908180     -1.15207375519734     12.55203035436844
  H   11.66428468503527     -0.31042959333804     13.02129543415830
  H   10.28203044671972     -1.42053636377104     13.18180670951337
  H   11.82966119815040     -2.00816844651461     12.54863170003626
  C   10.72732073615501     -1.52679799329868      5.74616304653566
  N   11.77773507875560     -1.55100283377327      6.59371668107823
  C   12.69575229656612     -2.51170392926437      6.40252349273092
  C   12.62090934128581     -3.46260073770999      5.37526914071396
  C   11.52872612658070     -3.41769685190989      4.50017972310237
  C   10.55480353150454     -2.43393278584535      4.68620851375282
  H   9.67586504089521     -2.36743723640860      4.05041693398977
  H   11.43167191683536     -4.14294522915228      3.69475998247019
  H   13.39729716186795     -4.21690508477176      5.26846225541012
  H   13.53065322916829     -2.51227366451725      7.10318214026769
  C   8.75222529578710      3.68130801463420      4.48183449174638
  H   9.00611779227618      4.61307891671014      3.96461337609559
  H   8.85185705857268      3.81156814695302      5.56061228571720
  H   9.38435447703613      2.85353292130992      4.14152358004194
  H   7.18094739099930      3.31133316996898      3.29381754319485
