88
Coordinates from ORCA-job AXAJUE-CH3OH_1_6_tpss_d4_lanl2dz_631gpol_Mn2.opt
  Mn  6.23950746441595      1.70765947937006      5.39761330769948
  S   5.85493934611927     -1.19573777690697      8.51812659221145
  N   5.83853260811293      0.98468592374136      3.28943108127478
  N   4.59146809932444      2.96513363676002      4.63236371499686
  N   3.70461688897665      3.76860749576010      5.29248587291539
  N   2.65733914184059      2.78706771813636      3.58754559429059
  N   0.26581188042141      4.29544975204000      4.22526135777468
  N   5.04792446926560      0.27280913851433      6.23458950221088
  C   6.58144830661518      0.08327387681925      2.62504679502374
  H   7.50758994475688     -0.21368575631037      3.11667189282679
  C   6.18400953000644     -0.45168994838130      1.39386444296748
  H   6.80845257965059     -1.18546278073721      0.89051395659393
  C   4.97519540555882     -0.02040689978216      0.83832040300204
  H   4.63752871793912     -0.40763571169828     -0.12064261397835
  C   4.19225086451470      0.91662516935929      1.52221030927344
  H   3.25547003066615      1.26697641367299      1.10215265074108
  C   4.65287627030374      1.39494931400694      2.75794204867723
  C   3.96362595002651      2.36800950380223      3.61157358149363
  C   2.53699304315752      3.65843462340589      4.66234720393380
  C   1.31509043599796      4.35872840119441      5.07025063712247
  C   1.29233108787905      5.05269553035163      6.29379002368520
  H   2.17360757818097      5.06382175046316      6.92936364650987
  C   0.11457747201454      5.71149784987053      6.65178249815559
  H   0.05479449591182      6.25908117965912      7.59019769353238
  C   -0.98602350404858      5.65129015554300      5.78752917246025
  H   -1.92203830079633      6.14856528427630      6.03179035431170
  C   -0.85762460119246      4.93220423984430      4.59124243268166
  H   -1.68899635429096      4.86249598999694      3.88983232216878
  C   1.63520657169623      2.27484452313447      2.70166772293467
  C   1.29221922597992      2.99141551269484      1.55073157929906
  H   1.73950607755175      3.96443580783104      1.36227406574165
  C   0.36481921023534      2.43878528298866      0.66592766783983
  H   0.09104026085568      2.99078764360045     -0.23235659267021
  C   -0.22680621292414      1.18395498160642      0.91678299986819
  C   0.14365490962134      0.49109917409359      2.08237094392682
  H   -0.29832515404374     -0.48163841235907      2.29310723747833
  C   1.07507557558717      1.02646277604370      2.97968320075056
  H   1.36697131896987      0.48514197408368      3.87741639258434
  C   -1.25408542386988      0.61266920464043     -0.03550763510473
  H   -1.34280039173294     -0.47459092289945      0.07621834434788
  H   -0.99866777678220      0.83453076408136     -1.07960239758543
  H   -2.24558744631261      1.04817707078795      0.15821492592636
  C   5.37520632193716     -0.36866684824118      7.20158006130025
  N   6.78195234911948      2.47513172052752      7.43350898776826
  C   6.03342260457481      3.34255952526014      8.13565573038024
  H   5.22751296284860      3.82262115808830      7.58244980545168
  C   6.26380420100987      3.60929278880365      9.48844100051849
  H   5.63454056074097      4.31823705630717     10.02046703334974
  C   7.31432389334535      2.94370811971786     10.12827399108933
  H   7.52492566842081      3.12319176342752     11.18028503558476
  C   8.09402448022445      2.03094352042110      9.41214375754606
  H   8.90358606535091      1.49756219332652      9.89600300625799
  C   7.79555778778911      1.81337547041740      8.05919325391555
  C   8.48913690164643      0.88045741397689      7.16375643786663
  N   8.13621641155270      0.76747671368231      5.87895925754736
  O   7.49538906962210      3.39782435206445      4.49021053361198
  N   8.90010581641696     -0.19398183628432      5.28202725508547
  C   9.72843800073814     -0.65821019275750      6.21559953460211
  N   9.51150575297138      0.00113043424473      7.41521459401685
  C   10.12140570218439     -0.25013610868836      8.70256783385779
  C   9.53900886809843     -1.19651822717057      9.54805146088086
  H   8.66173406101002     -1.74862957930944      9.21921143195274
  C   10.09168333024620     -1.38911315303926     10.81866983229801
  H   9.64147727338049     -2.12155658976274     11.48734156819999
  C   11.20848553274377     -0.65004903970690     11.24910959794519
  C   11.76506703515694      0.29900979598166     10.36917269434546
  H   12.62955351047618      0.88145705160825     10.68537627587024
  C   11.23124704604486      0.50320585136222      9.09492385785197
  H   11.66604264773993      1.22911580417768      8.41167954912142
  C   11.81447358428366     -0.88561526777171     12.61532943263236
  H   12.28893402450098      0.02348327483757     13.00553521586970
  H   11.05791966206103     -1.21880053199708     13.33653012646737
  H   12.58878313987697     -1.66585037132727     12.56638304114016
  C   10.72051641458965     -1.71403278153877      5.98888787010452
  N   11.70100710263022     -1.83135642914471      6.90804472313207
  C   12.61537422127302     -2.79408557966958      6.71193659537911
  C   12.60306040903552     -3.66245761604965      5.61180209109147
  C   11.58214908008856     -3.52336906530203      4.66311777354438
  C   10.61589383816945     -2.53279297790721      4.84997741424105
  H   9.79628982937209     -2.38955434000044      4.15086555409356
  H   11.53570045038264     -4.18024725204578      3.79672068027444
  H   13.37144741461108     -4.42492337273546      5.50482675299544
  H   13.39359244023223     -2.86672255387769      7.47170755881919
  C   8.53823095886314      3.15899581147623      3.51569620352623
  H   9.13885152070445      4.06598687603519      3.37315511911618
  H   9.15803048634982      2.36363852106573      3.93535021868881
  H   8.11829761228850      2.82894328180205      2.55596673389902
  H   6.84781435913469      4.03341228261526      4.12331858687289
