84
Coordinates from ORCA-job AXAJUE-OH_1_3_tpss_d4_lanl2dz_631gpol_Mn2.opt
  Mn  6.30381295965843      1.62892786220264      5.26978805621130
  S   5.82846222759004     -1.40822003853258      8.47700305222558
  N   5.85970919486174      0.75402211741647      3.48468668501610
  N   4.54741979481995      2.48731810577476      4.89668142279695
  N   3.74597645712030      3.39738547015709      5.50868963150944
  N   2.70058104466512      2.59731338965654      3.71141845808060
  N   0.44564694566463      4.30784715703008      4.26633359619505
  N   5.35874160568080      0.16302421520097      6.18024613865856
  C   6.66588980746151     -0.08145908904336      2.80957515140708
  H   7.63132876998646     -0.27743999513039      3.26984920646733
  C   6.27315981969570     -0.67454511378524      1.60363891947977
  H   6.95660228559037     -1.34479941678621      1.08892487197909
  C   5.00481397806729     -0.39501527041363      1.08945946092404
  H   4.67007948928970     -0.84682760265188      0.15835344434380
  C   4.16040256381070      0.47955438142994      1.78206682383693
  H   3.17354252484694      0.72113338467211      1.40321380861414
  C   4.62435668729926      1.04314206281441      2.97620681093327
  C   3.93016030858934      2.00613050487928      3.81467414981423
  C   2.62394296566735      3.46472617157585      4.79272126921192
  C   1.48927596946129      4.33218595155602      5.12024244457793
  C   1.53391042327216      5.13125616740403      6.27714741385752
  H   2.40462350258078      5.10502639676184      6.92668075738289
  C   0.43357702440101      5.94477742348472      6.55416438499426
  H   0.42758701564618      6.57805632185102      7.43893468138223
  C   -0.65878057063354      5.93040813667301      5.67765659716891
  H   -1.53472266856894      6.54910486763622      5.85905316203028
  C   -0.60198380754229      5.09616953833660      4.55245278168661
  H   -1.43019006771261      5.05494075647018      3.84527797532995
  C   1.72857620909804      2.32064428426662      2.67601083953746
  C   1.74747818485569      3.08176438189859      1.50355780697933
  H   2.44463534411080      3.91059135477022      1.40240860273281
  C   0.85661298378031      2.75852190473773      0.47787997842970
  H   0.86421468274778      3.34689329055813     -0.43870040967249
  C   -0.04865129509642      1.68667693257787      0.60782036293181
  C   -0.03173104273333      0.93734184454745      1.79829052239853
  H   -0.71850919591419      0.10039659587318      1.91594321605011
  C   0.85319476186515      1.24481101615381      2.83702499546248
  H   0.86626502112653      0.66260299110724      3.75585795447267
  C   -1.02716195577543      1.36576651600889     -0.50025492736660
  H   -1.41375339183202      0.34371503429348     -0.40974348795499
  H   -0.56146467167207      1.47394706581589     -1.48824246576753
  H   -1.88709724997116      2.05095607248456     -0.46762664958105
  C   5.54886306907976     -0.51483015264489      7.15615661851131
  N   6.67249983690265      2.38248375317791      7.12570997498472
  C   5.90701891765068      3.28207586342723      7.77061705647032
  H   5.04314697451319      3.64485102892953      7.21870214838919
  C   6.19480896300633      3.70553307786842      9.07186434418950
  H   5.54708723741136      4.43310495194630      9.55393301445269
  C   7.30999217511456      3.17674982384303      9.72773850574204
  H   7.55725249067841      3.48500223998512     10.74103179618093
  C   8.10777050082002      2.23523846349197      9.07212455862338
  H   8.97547756420248      1.80225093193702      9.55688860892829
  C   7.76031834174128      1.85730013205146      7.76983502992563
  C   8.45108508041805      0.89540290972227      6.93046198494518
  N   7.99521719789929      0.67134713696186      5.69649260178727
  O   7.22003769373614      2.94892291205026      4.44820467841469
  N   8.76318485654091     -0.26941387857298      5.09368063055753
  C   9.69704771743818     -0.62392359836482      5.97644078929944
  N   9.53767198930622      0.09533543614640      7.15104357519798
  C   10.22623887131778     -0.03959524459746      8.41701843310800
  C   9.69520198214894     -0.91171778879445      9.37009023904212
  H   8.81212304055546     -1.50241295024679      9.13572810143224
  C   10.31009579754548     -0.98785162102451     10.62402980125679
  H   9.90211900486803     -1.66308237330320     11.37494095295311
  C   11.43696534937665     -0.20460322910733     10.93334200820651
  C   11.93693275259849      0.67020638712460      9.94842424814812
  H   12.80623646666279      1.28787148518865     10.17046572836571
  C   11.34034595305111      0.75911545153316      8.68842389500387
  H   11.73108932568781      1.42831761597111      7.92545262052902
  C   12.11169487672949     -0.31578957318746     12.28287924792903
  H   12.57409829919527      0.63394904969258     12.57942334968026
  H   11.39989058253530     -0.61351659018752     13.06260113646684
  H   12.90759644082739     -1.07493265306065     12.25585788243317
  C   10.72591825471674     -1.63665910322776      5.72832857177113
  N   11.71981278096245     -1.71837394344458      6.63656069592632
  C   12.66781043467972     -2.64505845966893      6.42870415905756
  C   12.67511234531495     -3.51199049082509      5.32712534062961
  C   11.63866608292407     -3.41074794424155      4.39065067511030
  C   10.63827609516014     -2.45724932500881      4.58943538457579
  H   9.80757401788508     -2.34461730622610      3.89806871309401
  H   11.60777994019608     -4.06693366565970      3.52318503373512
  H   13.47087939939444     -4.24411944302871      5.20960492839397
  H   13.45671030317133     -2.68913655318329      7.17942599028569
  H   6.84717636017538      3.82613409482339      4.67812945149690
