83
Coordinates from ORCA-job AXAJUE-oxo_1_4_tpss_d4_lanl2dz_631gpol_Mn2.opt
  Mn  6.32420341131994      1.67678178196408      5.23824858450616
  S   5.97928896498395     -1.21506196442234      8.57795382982601
  N   5.85945030547215      0.77310498116320      3.47155121344443
  N   4.52227755238601      2.47476875604613      4.89052507485689
  N   3.71896324070659      3.35555758353128      5.52248806455858
  N   2.67975158060604      2.58085015037678      3.71065528394118
  N   0.38509615076980      4.20732558173126      4.32965523095486
  N   5.31686271238262      0.14151485841863      6.18689455944126
  C   6.67640038761756     -0.06263217696087      2.81043769529218
  H   7.64216415457124     -0.25084292474152      3.27385505106410
  C   6.29005424116501     -0.66565097456837      1.60842184409606
  H   6.97949106485814     -1.33619770219980      1.10261052576684
  C   5.02477007017479     -0.39086566748699      1.08355326995576
  H   4.69890267396849     -0.84642159045672      0.15134331599995
  C   4.17298815527745      0.48349126918492      1.76638803588115
  H   3.18737756851214      0.72201570321236      1.38219500368933
  C   4.62296088148966      1.05384804766475      2.96216952186647
  C   3.91589612243552      2.00145184810990      3.80225614448608
  C   2.59338869903323      3.42363630397397      4.80834631277363
  C   1.44920735961602      4.26949510810238      5.15585002745093
  C   1.50509682326444      5.08434898316818      6.30083753755829
  H   2.39352132173225      5.08993983049630      6.92637690667918
  C   0.39179988856482      5.87349028093363      6.59668723584281
  H   0.39309948471973      6.51843361414351      7.47293084978501
  C   -0.72185511532599      5.82077050798079      5.74910533001645
  H   -1.60778264835742      6.42030702663964      5.94558047316241
  C   -0.67367297334392      4.97389562774716      4.63271357167998
  H   -1.51866260045555      4.90322509975800      3.94818349898691
  C   1.71950569247232      2.31868007059932      2.66024832055901
  C   1.74177667110331      3.10747997364666      1.50693699920039
  H   2.43104664837472      3.94561126264851      1.43124802296003
  C   0.86317823093629      2.79848747032667      0.46533722446204
  H   0.87276577269765      3.40854268418125     -0.43682578481147
  C   -0.03017445642974      1.71398340054370      0.56098592672554
  C   -0.01513305239784      0.93560994371377      1.73368508821796
  H   -0.69296955011302      0.08808368899663      1.82474934688508
  C   0.85545381895574      1.22846720196158      2.78773406577255
  H   0.86592314851530      0.62573771224246      3.69324382879491
  C   -0.99866235018044      1.40884484124118     -0.56016002857338
  H   -1.27704326018233      0.34804950891415     -0.57164531050405
  H   -0.57349480738243      1.66715428174502     -1.53796390961037
  H   -1.92387221388273      1.99179993536247     -0.43979225677467
  C   5.57983936968839     -0.44858031893819      7.20009258180357
  N   6.69262480659374      2.41511538684332      7.09831041170401
  C   5.94138290538060      3.35290146801999      7.70074744279102
  H   5.10338581699731      3.73494287438824      7.12352928798624
  C   6.21963676931344      3.79023910563434      8.99869593881224
  H   5.58787952499512      4.54912698377426      9.45227958714176
  C   7.30677715095929      3.24216370551204      9.68615740624119
  H   7.54320310914979      3.56367956506866     10.69768742131826
  C   8.09180385846670      2.26903400416709      9.06350351487901
  H   8.94014397071462      1.82100623956399      9.56862357695687
  C   7.75759702620307      1.87475421471282      7.76380189713746
  C   8.43970507460000      0.89664758914128      6.94084612030345
  N   7.98584319901420      0.67291487531307      5.70664729117004
  O   7.13810894475841      2.92389450379339      4.48085614075731
  N   8.73212663865328     -0.27937302921398      5.10501061141066
  C   9.66223358127300     -0.64345533421204      5.98987466263566
  N   9.51687529836448      0.08487962221299      7.15873019810955
  C   10.21977568497178     -0.03761623688296      8.41905897540817
  C   9.72730137594882     -0.93355499095978      9.37006939301483
  H   8.85929232137345     -1.54760669569032      9.14084912686701
  C   10.36104304179358     -1.00006779379155     10.61517332704405
  H   9.98406254967257     -1.69345605246583     11.36564891862972
  C   11.46697129785044     -0.18467106704325     10.91665287295620
  C   11.92734844011324      0.71337253689030      9.93306689766599
  H   12.78025712510822      1.35544537802709     10.14913867000903
  C   11.31217921867509      0.79369982125404      8.68151518920787
  H   11.67268926255154      1.47999613695202      7.91871897068677
  C   12.16282276752837     -0.28536340609569     12.25615663312496
  H   12.56821854891381      0.68436424535564     12.57114957273468
  H   11.48044575665792     -0.64600606495883     13.03538760836179
  H   13.00492521588238     -0.99131176464383     12.20174732665058
  C   10.67892853444780     -1.66882639068106      5.74371545776380
  N   11.69803482213330     -1.72202997967538      6.62561272811508
  C   12.63900140368848     -2.65628546426472      6.42047251064978
  C   12.61394062963139     -3.55767914939708      5.34683602071746
  C   11.55090482326311     -3.48577461902575      4.43818063721841
  C   10.55671972797253     -2.52507042340227      4.63520152439098
  H   9.70528667197351     -2.43568714567159      3.96589343113373
  H   11.49433603468092     -4.16999618387351      3.59404948167732
  H   13.40572776273227     -4.29412457767547      5.22976638220557
  H   13.44918016667742     -2.67745348769537      7.14904872574046
