84
Coordinates from ORCA-job AXAJUE-OH_1_5_tpss_d4_lanl2dz_631gpol_Mn2.opt
  Mn  6.35423249541525      1.57844906042226      5.16926811196327
  S   5.96053597368833     -1.36039593470747      8.45424517462414
  N   5.73493200482168      0.63281219141787      3.22842204961393
  N   4.48213220257723      2.41642569294432      4.75564403856598
  N   3.69317949954387      3.30767866116442      5.40637017262343
  N   2.64476410310838      2.59559615903152      3.57457260596106
  N   0.47411665296588      4.42433890921599      4.12797487680608
  N   5.44300967173111      0.11806172545399      6.10834457334072
  C   6.46445715851513     -0.25446616888821      2.53838051758482
  H   7.43167466565906     -0.50614643453096      2.97039991660421
  C   6.00617083006803     -0.82227680544593      1.34289912889524
  H   6.62354235211916     -1.53860963855934      0.80698196037079
  C   4.74730312871975     -0.44602244144115      0.86644761155742
  H   4.35770420093302     -0.86693627856431     -0.05794977271569
  C   3.97888915375432      0.47926120429931      1.58311994180905
  H   3.00097266065732      0.78064094976927      1.22525620068508
  C   4.51013928565145      1.00313563894594      2.77025787468870
  C   3.86817972907245      1.97951865606592      3.65508679326674
  C   2.57380860401278      3.41682011520297      4.69058052053543
  C   1.44774851869528      4.28383326515203      5.05059959307322
  C   1.43307583475396      4.92030553489869      6.30509886429331
  H   2.24711647048060      4.76072246518955      7.00692995808308
  C   0.34816887151709      5.74517332528146      6.60871531093520
  H   0.29762572621389      6.25533544073643      7.56851506614434
  C   -0.67227643491411      5.90010436845528      5.66183242177155
  H   -1.53458406336778      6.53226520729584      5.86142847137956
  C   -0.56111081430461      5.21850602885671      4.44210044770094
  H   -1.33238292817045      5.31211832549943      3.67774820871727
  C   1.64707319527837      2.35948144737437      2.55435672254157
  C   1.66912362473359      3.12467698222278      1.38470802048359
  H   2.39609840638278      3.92560167852311      1.27112753469870
  C   0.74126238687162      2.84322827644745      0.37986048087932
  H   0.75096186878448      3.43494882363029     -0.53454729286001
  C   -0.20714981940960      1.81176768413167      0.52929836744822
  C   -0.19440286327765      1.05806216337213      1.71678090606950
  H   -0.91422309399588      0.25155883812757      1.84910129296976
  C   0.72906250414973      1.32259194851872      2.73363684105357
  H   0.74025074828507      0.73579814571823      3.64966905827793
  C   -1.22847120746523      1.54034754518720     -0.55317728608785
  H   -1.62997288500262      0.52258730658987     -0.47920905131947
  H   -0.79580635305747      1.67086683323572     -1.55321997076114
  H   -2.07490461048690      2.23799112410032     -0.46911486168666
  C   5.66072443624073     -0.51895037776504      7.10781457860775
  N   6.78651010753836      2.44888745006241      7.24500833760514
  C   6.01312301519158      3.31852439151140      7.91516344923848
  H   5.15996788396332      3.70847137217122      7.36186662558530
  C   6.27661186060518      3.68541557267721      9.23979892822079
  H   5.62626574885402      4.39158898980247      9.74972679619155
  C   7.38468813856170      3.12292134193421      9.88052568685986
  H   7.62187019347580      3.38576615551117     10.90910011112336
  C   8.18968984394586      2.20583526206824      9.19696382494394
  H   9.04645114731964      1.75182848916944      9.68126759543117
  C   7.85506478679560      1.88380931157544      7.87411843191678
  C   8.55125340945640      0.92311281026064      7.01638784874008
  N   8.12200842490924      0.68619696532550      5.77683317443428
  O   7.21326306526117      2.89444328908575      4.28507574332613
  N   8.88377997350666     -0.26905864293807      5.19040949659213
  C   9.80238868490686     -0.61979090517186      6.09111727427899
  N   9.63226125384109      0.11415029215858      7.25532898417762
  C   10.32568043787485     -0.00817857193201      8.51909007285661
  C   9.82661491678179     -0.90250229899226      9.46884265397326
  H   8.96116064277307     -1.51807476064314      9.23402962403202
  C   10.45167022442730     -0.97060828290586     10.71809156924405
  H   10.06891876730866     -1.66324621057479     11.46644038603389
  C   11.55855080298864     -0.15873110652564     11.02598529371717
  C   12.02748495666690      0.73675046767489     10.04447440066321
  H   12.88140655432076      1.37599065452438     10.26519787628518
  C   11.41962269327897      0.81827871850371      8.78945511092400
  H   11.78652077441365      1.50379186065360      8.02896753370510
  C   12.24692025053929     -0.26134170061077     12.36929360670994
  H   12.65366471188295      0.70725116641951     12.68618321649246
  H   11.55943929550139     -0.61958361976866     13.14519964170921
  H   13.08720912305241     -0.96980237628393     12.31965388921634
  C   10.82946485988493     -1.64008530166541      5.86304637756323
  N   11.80609699654183     -1.73345346227048      6.78866617871422
  C   12.75079763981086     -2.66641485989604      6.59306746702960
  C   12.77107450978884     -3.52886298711090      5.48824228746264
  C   11.75252256642278     -3.41522035396251      4.53363012846465
  C   10.75654847949383     -2.45452150687530      4.71860707892399
  H   9.94083064143780     -2.32873027441282      4.01187705348542
  H   11.73260449114622     -4.06671464627164      3.66228612379621
  H   13.56324063400777     -4.26659342008798      5.38170102108130
  H   13.52608057875190     -2.71957403666038      7.35731447305554
  H   7.21328502082023      3.73467712189426      4.78979864700075
