61
Coordinates from ORCA-job BAKQUD-oxo_1_6_tpss_d4_lanl2dz_631gpol_Co2.opt
  Co  2.62949569722016     10.48018686030838     12.45234136563186
  S   5.89217936479128     13.18097871292090     10.28440029004383
  O   0.92590303210330      9.23948969657578     12.65786757329877
  O   1.71032257680796     10.63385723626067     10.41547955251180
  N   1.33994063785621     12.16455291916691     12.54772408771046
  N   3.30708701532895      8.60668222999408     11.73044329041765
  N   0.32780744969696     11.87400848447191      9.09041692670021
  H   -0.40577610585796     12.57760678123967      9.08278960563156
  O   3.04960514541362     10.45864742674464     14.12200238551362
  N   0.02497630144437      7.18942971133075     12.20923019893808
  H   0.24760279234651      6.21951707067369     12.00106474251365
  N   4.08444749681181     11.51898476124749     11.66859408281933
  C   0.75155987037942     12.58073928994967     11.40131797626457
  C   2.35644095652914      7.65039882657391     11.61044070996768
  C   0.96409450099712     11.62577822563862     10.26176193340899
  C   -0.09709453635843     14.54540494994951     12.51270853590568
  H   -0.64868664901038     15.48258262901613     12.49188505101802
  C   0.49464380946832     14.09195659857854     13.69542635490433
  H   0.41379817825906     14.65657820731656     14.62049523364181
  C   0.03411687323649     13.78120388909351     11.34621812994170
  H   -0.39986884731668     14.14012197577330     10.41556801177883
  C   1.21728140588295     12.89361350245223     13.67028920646704
  H   1.72314489284221     12.49125202925379     14.54444185851994
  C   4.85841231349417     12.22266398519933     11.08285617261881
  C   1.04504432059770      8.07778804716101     12.19494120799267
  C   0.42722111092192     11.03339578184544      7.93049895684068
  C   2.63172519572341      6.41653995341703     11.01052606759969
  H   1.85902329084112      5.66254213148383     10.87846629140400
  C   -1.27748536852068      7.42836089936774     12.76485845668412
  C   -2.08389905528435      8.48971568131257     12.30400821530204
  C   -1.73352423309587      6.52185985624209     13.73464117796423
  H   -1.08076169819935      5.71452754637741     14.06510212620506
  C   4.55407409813925      8.36603521234990     11.29366478927384
  H   5.26554019797719      9.17662540940096     11.42395402825667
  C   -3.81907694681479      7.73329984774768     13.86396177155608
  H   -4.81378072041389      7.86211808291797     14.28577124950997
  C   -0.76548792418854     10.51184874979487      7.40633680940548
  H   -1.70972253073469     10.72561700201438      7.90641658811524
  C   -3.35698476628065      8.61998329461421     12.88681670975314
  H   -4.00271656370004      9.42884082672003     12.54634252990379
  C   4.91098345109740      7.14759569068405     10.70568841257555
  H   5.93177803630685      6.98635196344910     10.36943912146374
  C   3.93055361991537      6.16243875972433     10.55386969568668
  H   4.16870360760117      5.20960276056537     10.08674847279410
  C   -3.00675199279366      6.67247055218249     14.28649919006990
  H   -3.35643914889761      5.97256939854928     15.04211536437363
  C   -1.64195409747584      9.44609525924247     11.22348127094676
  H   -1.06210733196851     10.27076450235898     11.65837878025478
  H   -1.00365505641682      8.95754482503183     10.47596802949472
  H   -2.51629724489899      9.86585821761838     10.71049283451059
  C   -0.73318252069372      9.71331636547274      6.26106737630250
  H   -1.65764734736555      9.30965177763372      5.85366052737217
  C   1.67713419071785     10.79328169045317      7.32095599006804
  C   2.96307974492657     11.39751474398447      7.83108253116873
  H   2.81134092150813     12.42236921034272      8.19519045495536
  H   3.36549081871874     10.81492081343001      8.67028995940741
  H   3.71473441717919     11.42668446850582      7.03407473861913
  C   1.67666839761539      9.97569863811619      6.17655266870877
  H   2.62608806288865      9.77979811371070      5.67949222578040
  C   0.49741312204913      9.43903244929408      5.64937578673165
  H   0.53684377065178      8.82130547715100      4.75430631677799
