62
Coordinates from ORCA-job BAKQUD-OH_1_5_tpss_d4_lanl2dz_631gpol_Co2.opt
  Co  2.52826374673982     10.45990743703538     12.51318337353800
  S   4.41686535096273     13.93414157197732     10.58602439453944
  O   0.82928598283889      9.21938445297913     12.61195186585855
  O   1.74863018342883     10.69122628011893     10.49899412726982
  N   1.39702061056216     12.26973130209037     12.56699658366179
  N   3.25089144487263      8.64290406851885     11.70383029284238
  N   0.46270785604647     11.95256398076504      9.10356940552579
  H   -0.20797922495748     12.71480200655569      9.04899283182150
  O   2.82406687925762     10.38173417935446     14.30913212826980
  N   0.01792823838613      7.12530106676950     12.20470090154184
  H   0.28162229937675      6.15986480271926     12.02423135318258
  N   4.15113613568718     11.45024260830286     11.90047988071222
  C   0.91504297954110     12.72985094002657     11.38853052230058
  C   2.31446929342471      7.67695433459719     11.55720965844536
  C   1.07160062547028     11.72768282247311     10.28970726470392
  C   0.26338103927146     14.80967197890877     12.41043453513833
  H   -0.16299208831973     15.80791999188465     12.34395623440492
  C   0.74100766598090     14.31734193098998     13.62898462650100
  H   0.68857074512145     14.91222673066254     14.53704025587809
  C   0.34988003606384     14.00382453529044     11.26934566085014
  H   0.01116617836749     14.38446316834093     10.30832898846857
  C   1.30895546520996     13.03884724817389     13.66529601789759
  H   1.70964507401308     12.59738269075207     14.57411052886058
  C   4.26821600111655     12.51636022302125     11.34627219217900
  C   0.99800033664143      8.05661907405404     12.16674739861278
  C   0.49637601460780     11.03311900595430      7.99955316955842
  C   2.59613829783644      6.48461518416891     10.88156012629143
  H   1.83190600165467      5.72774937310948     10.72011627774153
  C   -1.29666759949433      7.33423292187423     12.74248867831285
  C   -2.13415820088074      8.34866368440969     12.23250471878547
  C   -1.72792577749118      6.45163775419281     13.74446078543235
  H   -1.04962542310446      5.68227823184638     14.11189515090051
  C   4.48689788262788      8.46235350120963     11.21247552354285
  H   5.17038546088639      9.29637515726506     11.35356963461704
  C   -3.85455719495535      7.59450223640776     13.80953552806947
  H   -4.85641107735502      7.70569864283297     14.21920243664626
  C   -0.73330448403546     10.56168436768288      7.51532423752286
  H   -1.65752047075444     10.87935933849920      7.99695695083995
  C   -3.41577596755186      8.45726139529624     12.80031869072125
  H   -4.08643080573078      9.22867516571983     12.42339850987278
  C   4.85071123347963      7.28475254603469     10.54892945228207
  H   5.86165252961258      7.16619245180184     10.16792265612374
  C   3.88738328115981      6.28607819964355     10.37608790282698
  H   4.13037373333232      5.36683207469678      9.84786612561119
  C   -3.01021363974094      6.58033863512473     14.28068453515620
  H   -3.34217995030628      5.90009630051215     15.06178833151960
  C   -1.71371199205771      9.27301678604722     11.11519860472020
  H   -1.13036521106549     10.11515009814853     11.51081188165575
  H   -1.08423463584588      8.76241193616970     10.37463418648064
  H   -2.59751821119445      9.66904248197747     10.60027380827420
  C   -0.76323553560454      9.68014002173810      6.43242211297263
  H   -1.71601999324079      9.31491792991774      6.05510933152749
  C   1.72309581068707     10.66161104558065      7.41012688830248
  C   3.04895873882236     11.21488283191396      7.87339075766875
  H   2.97075181186924     12.27576938355912      8.14489727403354
  H   3.41035910486828     10.68333959796111      8.76397655187614
  H   3.80065051262645     11.11935439219738      7.08143735569927
  C   1.65883973567258      9.76286715258410      6.33010918455358
  H   2.58954387740772      9.46474683288221      5.84873472340275
  C   0.44181339223950      9.27339928235363      5.84425446951851
  H   0.43272936858804      8.58979737297283      4.99748854671128
  H   3.72687652732667     10.69496725935000     14.53526387722243
