62
Coordinates from ORCA-job BAKQUD-OH_1_3_tpss_d4_lanl2dz_631gpol_Co2.opt
  Co  2.45527835072825     10.38711133361675     12.24342112411509
  S   4.03221249377916     14.09366171245425     10.73965866514093
  O   0.90833033531506      9.15574016808965     12.65269244253812
  O   1.64829507940940     10.65119339540523     10.44941545787786
  N   1.26676959174764     12.15932682404790     12.52814371905698
  N   3.18705903785753      8.56028382057091     11.47930568269630
  N   0.46140871704647     11.96919457804941      9.03308412986587
  H   -0.17930451102146     12.75466678288751      8.95156390914736
  O   3.03812792003932     10.21182886142519     13.90219907472954
  N   -0.00501811717152      7.10345942816685     12.28739916575018
  H   0.18534399261571      6.13301719806526     12.05265724337829
  N   4.01844081073169     11.46707349464235     11.77697833468820
  C   0.78228322569625     12.66399130608120     11.37072877273586
  C   2.30080550153806      7.54556190644865     11.56877430050547
  C   0.99006034868537     11.71383748364426     10.24211207455876
  C   0.07499988528348     14.67421586938476     12.47982163454041
  H   -0.37715130103009     15.66292162377609     12.45874355283318
  C   0.57027537920393     14.14273169633363     13.67554627457777
  H   0.50656278280964     14.69921857870499     14.60697008494551
  C   0.18156373921071     13.92488146485661     11.30244872891694
  H   -0.16803022171647     14.34035366017281     10.35987743972406
  C   1.16685381557348     12.87614316391582     13.65721188267934
  H   1.58031196604945     12.40863455609031     14.54752184722133
  C   4.00807719747778     12.59745839110477     11.34581162930228
  C   1.01890795513645      7.97898362957462     12.21337437199303
  C   0.58190214343637     11.09482950107427      7.89620131156375
  C   2.60951861251216      6.26384078704135     11.09886754340798
  H   1.89936946270972      5.44185089235420     11.15894639169526
  C   -1.29074141182256      7.38070640449472     12.86742446759785
  C   -2.09467112274870      8.43241913471104     12.38013884466402
  C   -1.73020043831312      6.52337930550148     13.88721087880223
  H   -1.07782348669363      5.72339786189330     14.23522230288286
  C   4.39722045612779      8.36015318442989     10.93909149229302
  H   5.04409764215783      9.23425826544909     10.90597103364102
  C   -3.79659749443347      7.76689201567595     14.01610637465095
  H   -4.77820171710338      7.92722552361770     14.45731772134959
  C   -0.60738753641645     10.61730687469242      7.32609935088210
  H   -1.56446823443999     10.89290981849676      7.76767311498360
  C   -3.35034744027479      8.60453786721887     12.98935685072816
  H   -3.99533849695719      9.40626345493714     12.63121176858690
  C   4.78371651870736      7.10406166556886     10.45590460979570
  H   5.77284562633205      6.96550555717399     10.02722571964855
  C   3.87421763383780      6.04418974477228     10.53773573392200
  H   4.14200059966311      5.05586781805151     10.17103372460469
  C   -2.98690429359381      6.71493136176056     14.46423028453275
  H   -3.32556570805586      6.05366916226208     15.25860986268861
  C   -1.66906761784852      9.33704821131018     11.24798825524567
  H   -1.07588341746449     10.17759564781193     11.63218393985507
  H   -1.04868008231023      8.81133023263560     10.51058936980023
  H   -2.55126207614878      9.73797440342017     10.73373497881181
  C   -0.55329205005670      9.78337563399181      6.20710018750962
  H   -1.47323883824874      9.41173507263234      5.76111375739092
  C   1.85037813839919     10.77878235242301      7.36634526412799
  C   3.13402588335358     11.33756615375761      7.93105268281936
  H   3.01814563532128     12.37840528614742      8.25960364517135
  H   3.46674589029280     10.76295896588908      8.80614249000873
  H   3.92760840924081     11.30519432186238      7.17577845547981
  C   1.86888550623157      9.92836637048975      6.24602877707067
  H   2.83203513488009      9.67268728167806      5.80607147923298
  C   0.69343143679127      9.43322135886781      5.67157571100661
  H   0.74946725679000      8.78787327577879      4.79710188573336
  H   3.79456550115022     10.84105830261540     13.97336819429414
