61
Coordinates from ORCA-job BAKQUD-oxo_1_4_tpss_d4_lanl2dz_631gpol_Co2.opt
  Co  2.54029166917967     10.43420550630095     12.22803424927365
  S   4.06041623734332     14.04029625866871     10.50877395808804
  O   0.79768467274684      9.21559064813017     12.47877213668976
  O   1.72575092450230     10.70388528366807     10.44347158892078
  N   1.56551697552125     12.17198710378349     12.56150154291991
  N   3.24092275151683      8.62724779214841     11.61743284020685
  N   0.42898681074698     12.05062016673400      9.15238005011613
  H   -0.18078660566316     12.86409270946129      9.12511432140193
  O   3.03532099843880     10.26668901652370     13.76563616655772
  N   0.04361969099536      7.07369123076943     12.25057078084369
  H   0.32662068190321      6.10250801818685     12.14868421585560
  N   4.20817322342333     11.39174281509420     11.48888513890603
  C   0.96512219409869     12.70010250688062     11.46449246190802
  C   2.34275910151748      7.61632018005568     11.60749499192443
  C   1.05831465931932     11.77531811301182     10.30535156168354
  C   0.39393011639179     14.68872719051072     12.68992025867334
  H   -0.05600417810799     15.67733408805061     12.73804306838566
  C   1.02596701669635     14.13759336471687     13.80999699111955
  H   1.07864842109293     14.67855323763149     14.75087041629975
  C   0.36414794418515     13.96100011431795     11.49558995679249
  H   -0.08872593748719     14.39177420045014     10.60558715800264
  C   1.60620126367718     12.86898057505695     13.70790821387507
  H   2.11898799546033     12.38313853567119     14.53389598196507
  C   4.15560616608600     12.52861971682846     11.08824599362700
  C   1.00224012921974      8.02051499373526     12.14811988456144
  C   0.41563865938637     11.17719714197779      8.00666800739941
  C   2.69257578363317      6.35064150293965     11.12404373698866
  H   1.96729362287947      5.54218121895890     11.07044469899835
  C   -1.28674519139754      7.30154714375732     12.74427542132806
  C   -2.14411260514402      8.22351768761570     12.10871809174835
  C   -1.70803205790534      6.52576009893056     13.83449396533081
  H   -1.01351822755360      5.82483610283331     14.29614717132392
  C   4.49960868690498      8.43620947550910     11.19255777464420
  H   5.13815302343328      9.31551838144586     11.23111258544953
  C   -3.86951808313669      7.59880591050203     13.73582691530942
  H   -4.88212123433999      7.72281037862705     14.11418945940864
  C   -0.83937082635855     10.74512917767140      7.55168949235722
  H   -1.73960789638104     11.05621025244051      8.08028924642877
  C   -3.43894156279633      8.35496974049295     12.64101011906383
  H   -4.12619117489406      9.05535208303868     12.16768233181241
  C   4.92293021583172      7.18751229763676     10.72265809638341
  H   5.94926803418377      7.05590662197514     10.39068455953414
  C   4.00395729611269      6.13489370031944     10.68153137422088
  H   4.29767943179785      5.15677598781077     10.30743605628504
  C   -3.00363808151848      6.67324666116662     14.33322764318747
  H   -3.32967190864534      6.07622359767325     15.18189001392695
  C   -1.72954544665292      9.02513487734761     10.89786002886024
  H   -1.16698677618685      9.91934776770185     11.19766454262717
  H   -1.08237935079894      8.44727385508618     10.22476336473111
  H   -2.61418192860281      9.34196630884693     10.33272472951751
  C   -0.92160503682368      9.90954678474197      6.43606719212787
  H   -1.89249012628805      9.57218292071953      6.07983477473941
  C   1.61622564872231     10.81769548702649      7.36001956093024
  C   2.96758160243733     11.33000101786212      7.79573257396284
  H   2.91529647603824     12.36107475470215      8.16751297040748
  H   3.38133421656059     10.71874224583162      8.60916385751337
  H   3.67148128086692     11.30526672009044      6.95590288335158
  C   1.49695642176053      9.96707197372558      6.24544340101256
  H   2.40446551070118      9.67786057011260      5.71700814616842
  C   0.25586257311747      9.51416056916472      5.78665915335049
  H   0.20603610825168      8.86709561732846      4.91309213097003
