62
Coordinates from ORCA-job BAKQUD-OH_1_1_tpss_d4_lanl2dz_631gpol_Co2.opt
  Co  2.24869444128470     10.27450647205315     11.91445627454533
  S   4.18474528376075     13.97326459426220     10.83085378612458
  O   0.69055691905629      9.20472897765726     12.33963589679473
  O   1.53510485241689     10.59909674999940     10.08923463919361
  N   1.32001155427386     11.89551060446663     12.30764082257597
  N   3.05312513383971      8.59546227356682     11.49618508825699
  N   0.49154915271932     12.18031691144626      8.81860287443381
  H   -0.06270789884840     13.03276892562909      8.82524567675716
  O   2.75974170526687     10.04145241304449     13.66866016808506
  N   0.09283619202673      7.06883653057545     12.86441517655076
  H   0.42746910323320      6.12477643068635     13.04047257689146
  N   3.82537712962760     11.25443958829160     11.49435869721186
  C   0.76538029522528     12.51989649463805     11.23617292361606
  C   2.29723911490382      7.53287593471005     11.88294510182669
  C   0.94831257412706     11.71908007839960      9.99579775242679
  C   0.04617489272698     14.32911927732558     12.64943869249083
  H   -0.44483780286085     15.29024820231331     12.78192147230855
  C   0.61623701976486     13.66371451807789     13.73979259629426
  H   0.57873500670018     14.08786492038372     14.73958934046377
  C   0.11999128106862     13.75001262339281     11.37649652937721
  H   -0.30844241412321     14.26457327072438     10.51944792962640
  C   1.25677048588854     12.43717176413105     13.53336075176383
  H   1.74930691346508     11.84202107062863     14.30100120965697
  C   3.95618356471616     12.42767695936396     11.22463615608988
  C   0.97738857340932      7.97067514459673     12.40270842682531
  C   0.61530214773417     11.48979510821794      7.56089757297813
  C   2.74849340300153      6.22203493821728     11.71565185155424
  H   2.13001223103068      5.37379393424920     12.00009247657070
  C   -1.23559695193903      7.39061488057214     13.31432250548433
  C   -2.16337375220902      7.97660167316702     12.42779405197855
  C   -1.57506298957977      7.04888206859467     14.63118873790109
  H   -0.82531285786299      6.59989696057501     15.28107890350190
  C   4.26606567062472      8.40350388842414     10.95345577760914
  H   4.80433100049497      9.31105875856340     10.69406598319939
  C   -3.80047156182283      7.90950032743021     14.25103340028056
  H   -4.80824168018173      8.11435845233178     14.60676808791753
  C   -0.57040190244987     11.20430435103276      6.86840094097079
  H   -1.52936505246112     11.47027516370889      7.31166779009819
  C   -3.44851453704336      8.23321277543569     12.93655087141125
  H   -4.19012792626963      8.67843587643164     12.27440558051890
  C   4.78096311059869      7.11545069264809     10.76830182436943
  H   5.76710205921108      6.99097371706362     10.32906978187965
  C   4.01443733194296      6.01141163781167     11.15474801668292
  H   4.39013671361593      5.00015187730566     11.01872872312174
  C   -2.86365511530012      7.30862994232093     15.10253543479908
  H   -3.12987759407249      7.04878272833613     16.12459658560270
  C   -1.82847123524455      8.29299593900376     10.98929355807295
  H   -1.27390232381399      9.23797790057047     10.90954094612620
  H   -1.20043639610376      7.51170442740832     10.53952316070619
  H   -2.74493767937157      8.37676356393391     10.39390138688463
  C   -0.51164286188862     10.56892998262056      5.62628740962899
  H   -1.42893034995313     10.34488047968320      5.08620944471325
  C   1.88668775801143     11.17551752049395      7.03690552032671
  C   3.17215040739179     11.53630350477284      7.74043098190374
  H   3.10954553159701     12.51617975972072      8.23140821487145
  H   3.41539975742599     10.80270667512755      8.52074583354012
  H   4.00179555283284     11.56702751979440      7.02488003931036
  C   1.90897967466880     10.52631687750336      5.78921052707823
  H   2.87533549511525     10.27644095218249      5.35302389364386
  C   0.73612420685438     10.22296013212702      5.09038293340411
  H   0.79633057911652      9.72990813828958      4.12213136463382
  H   3.70715706262930     10.30048614396335     13.67051932653493
