36
Coordinates from ORCA-job CAPZIE-CH3OH_0_2_tpss_d4_lanl2dz_631gpol_Fe3.opt
  C   2.13606675159750      8.45085430451013     19.80918523046401
  H   2.36039923126881      9.50724636966199     19.62994359874259
  H   1.20337361405662      8.20164275388424     19.28006739059685
  C   3.27754285842596      7.56302348804883     19.32787073689919
  H   3.02460132811865      6.50494580666993     19.46055425958374
  H   3.48020473365096      7.73612695111304     18.26007559236309
  C   5.20931623042131      9.09073702869804     19.74394647570129
  H   5.20108545086364      9.22723016372595     18.65415250454327
  H   6.24606766460922      9.00490091190140     20.08912160149117
  C   4.59695911727692     10.30060696172884     20.46136906742577
  C   5.43811972767806      6.65083772016751     19.98698528760285
  H   5.67918350611917      6.51096425205314     18.92219947552539
  H   4.94010867356294      5.76868879190206     20.39572046538942
  H   6.34223593564956      6.85075196551596     20.56535338702474
  C   1.26952508626301      6.99205951916076     21.62860349396133
  H   0.57419014990569      6.68995491463980     20.83415570759797
  H   0.68138337744113      7.15750402337302     22.53941597662336
  C   1.18251336641046      9.43746797009615     21.83093393624400
  H   0.18132850735597      9.46615759087658     21.37528641083663
  H   1.73894151963023     10.35181652061018     21.61391253647522
  H   1.10217250441035      9.31750593880698     22.91392291492969
  C   2.28034090169288      5.87088537949288     21.92546285098136
  Cl  5.98133222204970      8.08613905513934     22.85453442625049
  O   3.24067775513127      8.62355130442929     23.85461575841257
  Fe  3.85989507253920      8.15626861772153     21.98720324081818
  N   1.95026909483552      8.27985392281490     21.28675313926995
  N   4.51655484536734      7.81937672974252     20.13464971622811
  O   3.96665169766572      9.98043409066139     21.58791310105324
  O   4.69880324965613     11.43868667012086     20.02139291461045
  O   3.50793441384303      6.30683944458319     22.13999211711873
  O   1.92083990331292      4.69923448007559     21.97276667631224
  C   3.29245590986339      7.52082780694525     24.82062296830820
  H   4.21696830889110      6.95146164643566     24.68764654657320
  H   3.21957597830260      7.95155012451482     25.82486351394181
  H   2.42442400832649      6.89496960602524     24.61040655367283
  H   4.00012730380636      9.22014717415253     24.05937042642588
