30
Coordinates from ORCA-job CAPZIE_0_4_tpss_d4_lanl2dz_631gpol_Fe3.opt
  C   2.07275215167960      8.55622481178995     19.94770399882012
  H   2.34990676113128      9.60924142316177     19.83478313804353
  H   1.13254423360498      8.39462542864035     19.39793616006304
  C   3.16650156313108      7.63756449203416     19.39166019923474
  H   2.84739023856250      6.58940787719065     19.45350620574079
  H   3.33323732299600      7.87319501478824     18.32716229873006
  C   5.16593913938710      9.01826350777837     19.89081646827290
  H   5.20620534751524      9.24403130053844     18.81534026083913
  H   6.18898113807854      8.87825343712762     20.26255137114875
  C   4.57716999774175     10.20580827967080     20.66500754180146
  C   5.28076691500126      6.56242566308990     20.04686485168982
  H   5.64810658764406      6.44696702422873     19.01448339258262
  H   4.70061112954475      5.68232262009203     20.33993450862462
  H   6.12002878076256      6.67082446070929     20.74026864804196
  C   1.12183966099058      7.02065787269092     21.63885664438379
  H   0.46687276983298      6.77179121779418     20.79437883582014
  H   0.49897435323583      7.13345745540903     22.53466766533939
  C   1.12181645266798      9.45759139099008     22.01994781046993
  H   0.13952945736802      9.58915754319923     21.54156643779470
  H   1.73267170852760     10.35573236326427     21.89875020088547
  H   0.98657188914055      9.25507886744923     23.08752087681541
  C   2.12562542485581      5.89529056792939     21.91570143846227
  Cl  5.70251643827551      7.88114081499926     23.34817460972874
  Fe  3.75761248170584      8.08886217119798     22.23526556172521
  N   1.84702789284937      8.30622497357953     21.40801202136663
  N   4.41946168329294      7.76619279114459     20.17573073113364
  O   4.00241625314451      9.86106188788843     21.82659910487878
  O   4.64201355816649     11.35922911607624     20.26928215920587
  O   3.25484479441337      6.34426282676028     22.47587592145807
  O   1.89286387475184      4.72051279878686     21.68465093689774
