36
Coordinates from ORCA-job CAPZIE-CH3OH_0_4_tpss_d4_lanl2dz_631gpol_Fe3.opt
  C   2.13619138111323      8.46642747092326     19.78663866907421
  H   2.37123557618511      9.52483200854585     19.63454776214893
  H   1.19574521738301      8.25022630742444     19.25504914700523
  C   3.25744434411513      7.57558516000360     19.23899379372376
  H   2.98583775623187      6.51796433550756     19.34870517313789
  H   3.38109433632353      7.77633585933655     18.16064680013057
  C   5.20637698761537      9.05608976034781     19.63526758760021
  H   5.19968266531764      9.25933193164207     18.55370172402289
  H   6.24741087761741      8.96615057100035     19.97069968693291
  C   4.60711507448358     10.24499714038487     20.39858721201221
  C   5.43134432512269      6.61744720665745     19.85361951119557
  H   5.76751490919626      6.48178542706879     18.81225619866683
  H   4.90124784803995      5.72332160142099     20.19517700799840
  H   6.28904599036177      6.78338358707540     20.51230643919932
  C   1.28775268097115      6.95835206612835     21.55702223668414
  H   0.61173707115937      6.65004818809184     20.74874146145663
  H   0.69287986877087      7.08016414833206     22.47066244056075
  C   1.17589485993410      9.40396551606533     21.83719434560200
  H   0.16753978626973      9.44991637185025     21.39763006833208
  H   1.72655586576336     10.32581292174658     21.63411956689628
  H   1.11560978394164      9.26219280265770     22.91937171541828
  C   2.34111491672649      5.87845853029007     21.83857024409023
  Cl  6.00023546631828      8.05621787141241     22.99891036797702
  O   3.24801394736044      8.77343666674492     24.18124390000714
  Fe  3.87381171301605      8.16132686766518     22.06533050425352
  N   1.94035590978518      8.26454614020676     21.25566261075156
  N   4.52441135792710      7.78506165839240     19.97680240657821
  O   4.04866593141207      9.91934872017569     21.57360092496974
  O   4.65194550334102     11.39283327586326     19.98273192844809
  O   3.48821868263315      6.37674844104508     22.30805841855759
  O   2.12083105514614      4.68620726984654     21.69242699523987
  C   3.22461292315291      7.63562538564061     25.08763291609165
  H   4.05635368488351      6.95564842017512     24.87053588211204
  H   3.26843064211410      7.99067045609003     26.12472033704401
  H   2.27261130571523      7.12709579622916     24.91401466396584
  H   4.12729975455132      9.20369411801111     24.29978935211282
