32
Coordinates from ORCA-job CAPZIE-OH_0_1_tpss_d4_lanl2dz_631gpol_Fe3.opt
  C   2.06266049216485      8.51482922099923     19.94760532912826
  H   2.31386195293394      9.57240994127524     19.81937700863215
  H   1.13929387468866      8.31407727126030     19.38324616571672
  C   3.19404817052787      7.62229892997879     19.44032409082312
  H   2.90429093243469      6.56714581149354     19.48574996378072
  H   3.41843499345634      7.86419661403745     18.39000321127881
  C   5.18296373241977      9.02090883416152     19.97210397829309
  H   5.22024140057313      9.21881743453348     18.89233138622214
  H   6.20434065797228      8.87949175684173     20.34553524429242
  C   4.58981925360248     10.20189008809242     20.73399857986863
  C   5.30664675754821      6.58627419150367     20.09584192961659
  H   5.61678662163149      6.52069095694334     19.04200394508872
  H   4.75660090758961      5.69192609769810     20.39459235193172
  H   6.17664969269819      6.70329932083506     20.74622551871413
  C   1.07885159284780      7.03209325358637     21.69405395120262
  H   0.28938871152944      6.85384491309762     20.95224733949286
  H   0.61828085482464      7.13807421375303     22.68308565220614
  C   1.08965918262506      9.46443937260503     21.98816040867599
  H   0.09711103545146      9.54398445399654     21.52074873504605
  H   1.68053150779415     10.36468408775812     21.80573466851328
  H   1.00068364988771      9.30552003903242     23.06505261788686
  C   2.05042640298490      5.85453122907891     21.76951401904835
  Cl  5.71364917978696      7.74936939457521     23.14579907171197
  O   2.92416316436287      8.28250424755951     23.82114292806084
  Fe  3.66252673168925      8.03464002698783     22.23013490311600
  N   1.81856970526938      8.29665841201687     21.41040860498721
  N   4.42350981588717      7.77755580825073     20.28052590283459
  O   3.92197446945682      9.82756613680716     21.82506345487187
  O   4.72309166502610     11.36801739953720     20.39293500214552
  O   3.29856343684506      6.22525460542055     22.05702037173232
  O   1.71174202595551      4.69206073622102     21.60422260253270
  H   3.66857742753413      8.20246520006171     24.46578106254689
