56
Coordinates from ORCA-job AZULIQ-OH_1_1_tpss_d4_lanl2dz_631gpol_Mn2.opt
  Mn  4.35850687926856      2.46816215225904      4.40961580250704
  Cl  3.56267467143607      1.03043186697937      2.77663728800530
  N   2.64179891033268      3.53379700051027      4.45064431065948
  C   2.77674930766840      4.76390292740097      5.01672620269425
  C   1.70728150634937      5.66004712209591      5.08267957975620
  H   1.84744319749159      6.63281443937363      5.54833599512666
  C   0.47429180511077      5.29014690963613      4.53460446254802
  H   -0.37049470338430      5.97463953352850      4.57114940617285
  C   0.34756496417317      4.03114453751103      3.93562875356774
  H   -0.58805768419591      3.70938281136109      3.48595205509823
  C   1.45089090022556      3.17903248593121      3.91096127573154
  H   1.42787264896131      2.19949296080815      3.44079366320722
  C   4.16133114199411      5.10048650241084      5.49445844156237
  H   4.74423237243727      5.50183663118375      4.65643925958672
  H   4.16703929349612      5.83298907995697      6.30721338998619
  N   4.84790075329375      3.82797628341194      5.89804904822434
  H   4.40741646747275      3.51868643753983      6.77470316344492
  C   6.31001426103318      4.00000109349082      6.15810775737634
  H   6.74598088905124      4.39846766027060      5.23609990683623
  H   6.72078316693058      2.99914991524143      6.33188062044565
  C   6.66386264842050      4.88781339492940      7.34962701792374
  H   6.14906257765327      4.53258773399875      8.26563146114512
  H   7.75035395330384      4.79965391777779      7.53290005387626
  O   6.30935838011259      6.23077936450176      7.05873516828146
  C   6.71622729096413      7.13323602211098      8.09441346449391
  H   6.22464833083724      6.88993146957741      9.05085270250867
  H   6.41468285619081      8.13260019601946      7.76958870879272
  H   7.80856628322424      7.10425712931049      8.23346086358802
  O   5.11162369847137      3.62761118933604      3.25783207811162
  N   6.01567697821368      1.35388880519232      4.48245064228366
  C   5.93094401101149      0.14449506595276      5.09515730521460
  C   7.03112676915991     -0.71262441853868      5.17435171894177
  H   6.93048369711918     -1.66869637565874      5.68302259169496
  C   8.23809298613006     -0.33347601325625      4.57823213968216
  H   9.10369184759054     -0.99070912964902      4.62136702745835
  C   8.30739468460055      0.89966232114578      3.91847544177431
  H   9.21907720095293      1.22864920969420      3.42660195166306
  C   7.17983751162657      1.71746230098389      3.89183373858032
  H   7.15261820011514      2.68181372485227      3.39232136235571
  C   4.56383590473486     -0.22369677082054      5.59907694834081
  H   4.01112753338100     -0.72550142190984      4.79486058464700
  H   4.59684216292964     -0.89683733177682      6.46120174602660
  N   3.80528553425370      1.03134489963217      5.91571355072822
  H   4.16495163167561      1.37411069577643      6.81654140918632
  C   2.33520709812227      0.80005810695689      6.07698646950524
  H   1.98631932890984      0.35752872038589      5.13744398153519
  H   1.86742708848107      1.78402357274586      6.19477029892026
  C   1.93628116958258     -0.07212011137175      7.26573528957382
  H   2.36068217831111      0.33319583368619      8.20714563908312
  H   0.83566507764538     -0.03499031626099      7.36355910698865
  O   2.37811237886393     -1.40112469432461      7.04199680206583
  C   1.92710981334230     -2.30048754637755      8.06116852446120
  H   2.32177362846113     -2.01358215386212      9.04999740411622
  H   2.30288514978509     -3.29016048873115      7.78815789582036
  H   0.82659623126363     -2.32323532703406      8.10580454998749
  H   4.85317743541228      3.36775007410376      2.34564397810551
