55
Coordinates from ORCA-job AZULIQ-oxo_1_4_tpss_d4_lanl2dz_631gpol_Mn2.opt
  Mn  4.31350713087223      2.48726453931503      4.33113390105312
  Cl  3.47225206073413      1.00167308925382      2.82536114836884
  N   2.60190001785827      3.57900575312115      4.41300013887943
  C   2.75625746835794      4.80228582387575      4.98658060590395
  C   1.69722179885518      5.70798074637388      5.06739555993485
  H   1.85168600091093      6.67454384278908      5.54096205199665
  C   0.45799759106160      5.35728550262560      4.52020759638816
  H   -0.37792013165406      6.05197737805339      4.56353827088817
  C   0.31438294541729      4.10451245669055      3.91370035592148
  H   -0.62610530207610      3.79568048219666      3.46548669177477
  C   1.40669402309293      3.23813657367535      3.87810396935601
  H   1.36568979763798      2.26104078278401      3.40563411192372
  C   4.14917784861363      5.10655009502590      5.45652929406458
  H   4.74523253304165      5.46228853841379      4.60645794662317
  H   4.18393634268312      5.84993851093975      6.25822426254636
  N   4.78227514628842      3.81697378041912      5.88533067193458
  H   4.30959135749832      3.51543611594935      6.74775020105668
  C   6.24535026643447      3.93634921345134      6.16636688172936
  H   6.70516642107508      4.30702715552329      5.24442020252956
  H   6.61806773487933      2.92404842023717      6.35994007212969
  C   6.61009729002317      4.82419498662209      7.35517368511902
  H   6.06981199172239      4.49727316174944      8.26678016643034
  H   7.68992297993791      4.69753701460250      7.55465565982135
  O   6.30984255031077      6.17478141781861      7.04380912164045
  C   6.74069860332614      7.07577432569406      8.07186080052739
  H   6.23018949167101      6.86479758247599      9.02586149629740
  H   6.48094012813214      8.08087370016988      7.72954442578510
  H   7.82958845883433      7.00661964247689      8.22230824319046
  O   5.03165219410337      3.56429480712152      3.28644701889411
  N   5.97614054158019      1.36856011960267      4.42206872497012
  C   5.92315138702927      0.18941949843318      5.09328648759904
  C   7.04841906538048     -0.63525563402231      5.17700319646838
  H   6.98891276663116     -1.57064368758211      5.72855008101230
  C   8.22674460811946     -0.25285414237625      4.52698773519922
  H   9.10889787810275     -0.88773952729560      4.57556006904613
  C   8.25168481830078      0.94637440697494      3.80339604727306
  H   9.14068474168331      1.26622507051214      3.26656963991236
  C   7.10485008506270      1.73623811479596      3.77155730217526
  H   7.02062376858364      2.67222337960799      3.22439419662760
  C   4.57527244108433     -0.20624937876411      5.63454952203151
  H   4.03699404730841     -0.75447500832187      4.84990298944009
  H   4.65422040419085     -0.86276435077939      6.50682188637167
  N   3.76874337025045      1.01792677592847      5.92735678386381
  H   4.10233690844190      1.38133696665128      6.82966533008232
  C   2.30616506153139      0.74608734292063      6.06880958242542
  H   1.98586547181941      0.27041466143005      5.13543448368217
  H   1.80665367935408      1.71941661472553      6.14873542457634
  C   1.90925191261740     -0.10608494649403      7.27230461709590
  H   2.28140653948349      0.34880417443539      8.21312455546146
  H   0.80571326847003     -0.12652829125677      7.33532861725704
  O   2.43015219158443     -1.41564319573370      7.10510155592076
  C   1.99661784900692     -2.30695183114579      8.13844412904084
  H   2.34273829468102     -1.96818219275139      9.12908564944621
  H   2.43464474279799     -3.28227944801047      7.90987498502639
  H   0.89820941726030     -2.39002093092956      8.15042185528551
