54
Coordinates from ORCA-job AZULIQ_1_6_tpss_d4_lanl2dz_631gpol_Mn2.opt
  Mn  3.47148070628449      2.22246006392805      4.70105184358293
  Cl  2.07853156741240      0.76917524565282      3.44519792227384
  N   2.56433830640552      4.07351602900463      3.95869073403612
  C   3.05951803173343      5.25235952888500      4.41121345951946
  C   2.48963808859610      6.47650129590868      4.05213103505045
  H   2.90493983290804      7.40315217635187      4.44280018469312
  C   1.38885682993723      6.48540565633898      3.18692054070907
  H   0.93013137510256      7.42700840721283      2.89237487733131
  C   0.88619736216712      5.26811210713869      2.71382359040156
  H   0.03249427491410      5.23051762619544      2.04227066911672
  C   1.49624788084332      4.08195258046558      3.12511557122069
  H   1.15190407070501      3.10094949644467      2.80386629638902
  C   4.29044945230817      5.16880615924774      5.28637550983323
  H   5.18789855863903      5.10280475286116      4.65333912303727
  H   4.40661423573822      6.06640444744402      5.90314736876576
  N   4.26050039483995      3.92427752006796      6.11034265258297
  H   3.53562000288021      4.05036785823342      6.82909511948612
  C   5.55163718974487      3.65331904619483      6.80356380194258
  H   6.34158036367295      3.66634133384045      6.04367808886568
  H   5.50443042893209      2.63557600078729      7.21223077301520
  C   5.91131611551719      4.61206823990198      7.93880793696651
  H   5.08444476596661      4.66479977922583      8.67494305664376
  H   6.79774323554740      4.21756736513233      8.46927855657935
  O   6.18202535386878      5.89222976648189      7.38744350114993
  C   6.59370265692850      6.83418819439613      8.38558266781969
  H   5.80285053087287      6.98873396044451      9.13774403400683
  H   6.79149164053402      7.77335222750324      7.86195459286492
  H   7.51082440220914      6.49372507472467      8.89206242620978
  N   5.43521399393210      1.40499386528905      4.28022829254650
  C   5.63019045213029      0.18438294685691      4.84371698299309
  C   6.83122516912071     -0.51173262557180      4.66411843199836
  H   6.96422927194148     -1.48398224242296      5.13338343504695
  C   7.83894961449219      0.04952731732846      3.87360515712973
  H   8.77577907575190     -0.48178073452537      3.71964890773657
  C   7.62610995213593      1.30203419301067      3.28360508384111
  H   8.38088838001712      1.77092787239640      2.65786030687956
  C   6.41123319619285      1.94494885277950      3.51618054342784
  H   6.19191774860730      2.91767152520492      3.07927867403851
  C   4.47126581710012     -0.41305114477919      5.61148956858242
  H   3.77840975069425     -0.87640653442823      4.89428676545445
  H   4.80895746324815     -1.18754303581256      6.30771756347755
  N   3.68785274885007      0.65302028765244      6.31273207258551
  H   4.25258596848095      0.98102638089833      7.10565354091821
  C   2.37700790924728      0.17050086299425      6.85332977052500
  H   1.84986120108169     -0.31301041587961      6.02417205773071
  H   1.79909818716631      1.05892575212772      7.14422331919310
  C   2.47574503775745     -0.75941733601871      8.06028800490875
  H   3.03086189884376     -0.26976261762430      8.88665143766220
  H   1.45413338810291     -0.96341016231050      8.42944341807131
  O   3.12112900161248     -1.96297582804671      7.66858256482922
  C   3.13838991475558     -2.93216612782691      8.72136803929994
  H   3.69471673816948     -2.55982860989493      9.59800753531429
  H   3.63688449708883     -3.81855142910797      8.31946369501642
  H   2.11425596826901     -3.19451295230392      9.03121889669802
