60
Coordinates from ORCA-job AZULIQ-CH3OH_1_2_tpss_d4_lanl2dz_631gpol_Mn2.opt
  Mn  4.38804952457116      2.37756901919211      4.56946549607529
  Cl  3.65926173434594      0.99134265533400      2.78296790564241
  N   2.77551826360921      3.53631619509498      4.54192268119112
  C   2.89133923882375      4.74394669312074      5.17258209045774
  C   1.83876421821933      5.65632240455389      5.23659884018118
  H   1.97890525266366      6.60070002302546      5.75839022526079
  C   0.62120199415115      5.34523461039470      4.61713681848436
  H   -0.21147590362545      6.04393369231893      4.65103312808658
  C   0.50517167991664      4.11710303767715      3.95495400965412
  H   -0.41465682713752      3.83221300401472      3.45019145330668
  C   1.59036496169087      3.24214151367143      3.93880496489573
  H   1.55951932963198      2.28355224411191      3.42723893533449
  C   4.25586325946138      5.02051707893467      5.74102003923183
  H   4.91072699755737      5.47916141534319      4.98783472832601
  H   4.22542062830802      5.70674332271068      6.59397018850553
  N   4.88719536254480      3.70923380357608      6.09385723761617
  H   4.40705867937892      3.37238690075683      6.93951311264392
  C   6.33880389551568      3.82409806187775      6.43127938633726
  H   6.84692311707207      4.21680863502106      5.54313281550502
  H   6.70331501243053      2.80733395008488      6.61341553762974
  C   6.67017749239105      4.69463295715705      7.64230428392142
  H   6.06472769319512      4.38856861751128      8.51933331542343
  H   7.73126855488096      4.53304932015833      7.90625711421871
  O   6.43673256036114      6.05637604142157      7.31425737167929
  C   6.82362192527541      6.94040632406914      8.37298108370809
  H   6.24107997087571      6.74518976347770      9.28836952618641
  H   6.62212794429901      7.95479464542995      8.01839786650324
  H   7.89646328715762      6.83519461170398      8.60022744404114
  O   5.22670956087593      3.46187299721517      2.97990660451572
  N   6.04457418363863      1.28796180363647      4.63842948149953
  C   5.92444522180657      0.06302499663219      5.22621344616260
  C   7.01054002447776     -0.80298194817973      5.35831951381146
  H   6.86960405824416     -1.76765272112129      5.84085014803419
  C   8.26006345742065     -0.42327543150312      4.85365194151501
  H   9.11668148945927     -1.08763799242233      4.94007251197423
  C   8.37901285092446      0.82489820293069      4.23041372690383
  H   9.32436814056147      1.16082401584580      3.81172898670435
  C   7.25819488725881      1.64793033894153      4.14403506740314
  H   7.29745117428921      2.62265258063646      3.66444290161337
  C   4.53053232580706     -0.28831898007268      5.65770937271326
  H   3.99450196630531     -0.73830098097230      4.81249702890360
  H   4.50871019881439     -0.99423419889604      6.49399305030888
  N   3.79647475879891      0.98212902133679      5.98702647060896
  H   4.12261455293949      1.28106023502486      6.91709011446057
  C   2.31521887556157      0.78263869625117      6.08456518305562
  H   1.99252602707610      0.36401848992710      5.12478388254713
  H   1.86604145651249      1.77527367870840      6.20043209606729
  C   1.84900057252726     -0.09859149157055      7.24163934615561
  H   2.25060458252562      0.27966869178386      8.20438378067043
  H   0.74699237395798     -0.03264427126245      7.30174008303923
  O   2.26146534138982     -1.43662920655947      7.01372204090768
  C   1.75922104429411     -2.33366500842094      8.00955661068760
  H   2.13347138641517     -2.06756776646864      9.01233568248312
  H   2.11626722200171     -3.33035555806183      7.73660970103578
  H   0.65748591673990     -2.32805830174781      8.02456733198217
  C   4.50905015452747      4.48657570748617      2.22825166948539
  H   3.51532690896061      4.12046835245831      1.94992211508495
  H   4.42621828970334      5.36034770779762      2.87616110840703
  H   5.09534582429546      4.73896610691042      1.33837390325893
  H   5.19467532432320      2.64935169199162      2.40808749795090
