50
Coordinates from ORCA-job AKENAF_1_5_tpss_d4_lanl2dz_631gpol_Fe2.opt
  Fe  11.87965296580748     -0.14027000258958      4.98110974931468
  S   10.88168338317128      1.43685129717093      0.90208528710834
  N   12.59236716045538     -2.16762721942198      5.13408692689860
  N   13.66679694585133      0.07542010592951      6.12542794552152
  N   11.57886462680141     -0.18458285369833      3.09835354682944
  C   12.08873815337164     -3.25568232893256      4.52545610110974
  C   12.69804385080198     -4.51403687826056      4.61300957404724
  C   13.87607435820537     -4.64785333931973      5.35832125892875
  C   14.41921848102273     -3.51442432825157      5.97418015546358
  C   13.75607060408265     -2.28830591252583      5.83126683338650
  C   14.28477072813349     -1.03567802213095      6.37275770444834
  C   14.17058217896553      1.36495122220341      6.65752966911893
  C   15.66954193349835      1.39113119517286      6.98178906738570
  C   13.30599635552833      1.73813218134069      7.87778659953784
  C   11.27548439464817      0.50452208739101      2.15021895411736
  H   11.18031130519279     -3.09785733485534      3.94779701201560
  H   12.25332563201697     -5.36599422186015      4.10502734769205
  H   14.36918719509115     -5.61301562106148      5.44748170927520
  H   15.34479650433987     -3.57100266351430      6.54348584245155
  H   15.20981005118421     -1.07631637341749      6.95383242610191
  H   13.96528523414902      2.08926718644026      5.85765988659225
  H   15.91472531137539      0.78113665899036      7.86214729948094
  H   16.27055017885044      1.04614048098821      6.13006581479758
  H   15.96537725067702      2.42210652658065      7.20986249893894
  H   13.56122389834904      2.74950798175721      8.21702532114921
  H   12.23985811530308      1.71092893409904      7.62646907763011
  H   13.48937720481086      1.03624803270174      8.70220346837818
  N   11.18086407645382      1.91542285943870      5.08077891253374
  C   11.55810415803290      2.94735165569822      4.30577139570997
  C   10.86915306032181      4.16792882908900      4.28773578372240
  C   9.74687469717724      4.32480786346954      5.10747180680970
  C   9.33545036834546      3.24780202294704      5.90264625612262
  C   10.06768213585777      2.05523517023288      5.85331211807118
  C   9.65364673785238      0.85505093787879      6.58412624461499
  N   10.28546149621118     -0.25977422142185      6.40402787337187
  C   9.88605052533376     -1.48994308699823      7.12926317138753
  C   8.44997760603490     -1.49209264552707      7.66749161470481
  H   8.32011646211119     -0.79233210096404      8.50463941876306
  H   7.72483999539314     -1.24562942656691      6.88053303311305
  H   8.21328424330546     -2.49471864064261      8.04322863859199
  C   10.92251140783550     -1.73003614827338      8.24426916479358
  H   10.73346117093739     -2.69775996497468      8.72477082323998
  H   11.94070140285021     -1.73260953438120      7.83994305669204
  H   10.85077889903208     -0.94125936586497      9.00475076758816
  H   9.98907878972176     -2.29163488877193      6.38506891764888
  H   8.78871601243308      0.93746764956425      7.24791111496108
  H   8.45488241432017      3.32082437956797      6.53769524952047
  H   9.19384798294556      5.26103860504084      5.11875432854257
  H   11.21273402683139      4.97037635207752      3.64037407563687
  H   12.43106832897375      2.78178690845607      3.67839915613758
