50
Coordinates from ORCA-job AKENAF_1_3_tpss_d4_lanl2dz_631gpol_Fe2.opt
  Fe  12.04547516599873     -0.14655549465241      5.07384724008329
  S   8.10038873147148      0.31840081014616      3.25977848840209
  N   12.79476329141833     -1.92648545525228      4.89107816947251
  N   13.45578713537213     -0.00616963425538      6.41615752426914
  N   10.77566658870821     -0.45492704257674      3.69654548968800
  C   12.41687659457740     -2.86982805663563      3.99480081050830
  C   12.99888484250066     -4.13716502793660      3.97382218497934
  C   14.00362910068524     -4.45806035301300      4.90207449632639
  C   14.40417459789225     -3.49096941828514      5.82455753527209
  C   13.79010951261415     -2.23004395032170      5.79220672223504
  C   14.11075394488785     -1.11643802183071      6.64632492804854
  C   13.72229748238061      1.21349746260288      7.22260405876342
  C   14.74821736280297      2.08200104822544      6.47138157826678
  C   14.15563553211764      0.92071940130688      8.66623980508551
  C   9.62946509356922     -0.11030011181166      3.51339372722226
  H   11.63274510780717     -2.56475720622988      3.30764022899391
  H   12.66483894587597     -4.86256421349421      3.23661453719726
  H   14.46541050965700     -5.44245329125356      4.89962948866924
  H   15.18123340935185     -3.69364638193783      6.55798199916656
  H   14.85477543658904     -1.20661078084956      7.43735854904234
  H   12.76226256543118      1.74229872365812      7.24816452906825
  H   15.72083129126959      1.57458732942476      6.42815780261783
  H   14.41856945730059      2.28735228181538      5.44632663103237
  H   14.87642206902926      3.03839195991923      6.99306145295047
  H   14.16306502575558      1.86087180461613      9.23069396345304
  H   13.45801356947727      0.23043005189413      9.15859480629840
  H   15.16933261847374      0.50207023461586      8.72080328255704
  N   11.51658402429620      1.76374464091334      4.98423807227893
  C   11.98046259897576      2.65788069008850      4.08755035143448
  C   11.45714199684980      3.94929275369710      3.98500903059834
  C   10.40246256726789      4.32694182909942      4.82611987645490
  C   9.90448315365990      3.39740817718536      5.74298830807711
  C   10.47941981639207      2.12189813322714      5.79933778869731
  C   10.02248941259369      1.06557348129066      6.69915896464649
  N   10.63359880110660     -0.07089445543845      6.63760403940293
  C   10.23844996665147     -1.23492457613248      7.45274521076884
  C   9.51472504984669     -2.23198497191855      6.52339508658203
  H   8.57422570944974     -1.79966660015150      6.15997959751646
  H   10.13415629224501     -2.48276318596732      5.65547620798472
  H   9.29266748299333     -3.15169165242616      7.07849874722594
  C   9.40444238363811     -0.89445518190565      8.69394052415178
  H   9.27724646547833     -1.79971283097890      9.29945565890189
  H   9.89718192155099     -0.13528947493840      9.31671643291147
  H   8.40121706449654     -0.53776811294483      8.42388594345434
  H   11.19250636455544     -1.68551481232902      7.76645835751943
  H   9.19166692468756      1.26925167743982      7.37857944507159
  H   9.07519184926212      3.64177870209715      6.40266379178736
  H   9.96826312764036      5.32143595563652      4.75814555470036
  H   11.86306309553417      4.63468872510097      3.24583792731097
  H   12.77572894781103      2.31212442146656      3.43177505285184
