51
Coordinates from ORCA-job AKENAF-oxo_1_1_tpss_d4_lanl2dz_631gpol_Fe2.opt
  Fe  12.19471414479781     -0.03470213830586      4.92877884968008
  S   8.12990035184190      0.48410094941808      3.49781587699882
  N   12.74171474182931     -1.91975493475686      4.99220382035533
  N   13.41519744279175      0.08070581525117      6.48592731223811
  N   10.77478561569423     -0.47236641451648      3.68928803317481
  C   12.39299280991546     -2.87097581819381      4.11187532714372
  C   12.90743313390060     -4.17150244913926      4.20722372512273
  C   13.80076974849415     -4.48454680596511      5.23755019746915
  C   14.17281039446421     -3.48450403441524      6.14530843317225
  C   13.63115190407802     -2.20525415605442      5.98581673648963
  C   13.95403611109919     -1.05024919163608      6.81161922638998
  C   13.72718000309123      1.34168976952793      7.19588457301767
  C   14.74998849777294      2.11791336768101      6.34205765255717
  C   14.20220170992650      1.14123099151327      8.64063753650526
  C   9.64964358673069     -0.04171920435198      3.59413213403172
  H   11.69553989094129     -2.55564484100932      3.34055137565261
  H   12.60713317451343     -4.91798421514469      3.47670011507378
  H   14.21024356143010     -5.48782513322609      5.32885051313251
  H   14.87515814506416     -3.68348302074693      6.95133014029149
  H   14.63577892849765     -1.15097316537501      7.65713715275696
  H   12.78062878240812      1.89609559546846      7.20649918259417
  H   15.72498425609475      1.61478730934801      6.37382548738844
  H   14.42785679351542      2.17194285755931      5.29761368558276
  H   14.86397236112897      3.13221866396041      6.74337517869724
  H   14.27152632248187      2.12177300322913      9.12615268347210
  H   13.49849735223443      0.52437126457943      9.21589866822320
  H   15.19988607417930      0.68464311199320      8.68723358003943
  N   11.53662647040940      1.80693081559415      4.93522214092253
  C   11.96281261356707      2.75683966947250      4.08295062997257
  C   11.37911170864023      4.02777055314880      4.05417627713562
  C   10.32331516196424      4.32039352838951      4.92561808577075
  C   9.86864745603743      3.32510868667795      5.79644160764738
  C   10.48970251538406      2.07196377264514      5.77021537599396
  C   10.08529350722728      0.93326305994395      6.58523468443081
  N   10.73144360602736     -0.17490537238688      6.42038211894691
  O   13.38682893442365      0.33380228782890      3.84799130143485
  C   10.36368637055654     -1.40325996739310      7.15940495602930
  C   9.44231054156710     -2.25178190327657      6.26037902055886
  H   8.48754430274719     -1.73541012483922      6.10141526867787
  H   9.89922164219632     -2.42755587706942      5.28185477704208
  H   9.24729248366615     -3.21558859246070      6.74683191456302
  C   9.74302612680315     -1.13885756645698      8.53844620634964
  H   9.65054606166899     -2.09113198248854      9.07420591170731
  H   10.37034207592658     -0.46649376420752      9.13963178819262
  H   8.73449312546208     -0.71139546306235      8.46232101121730
  H   11.31064229078570     -1.94175547173650      7.29814632612546
  H   9.25717218509004      1.04167800110285      7.28749502834853
  H   9.03532444406572      3.49970661692685      6.47256813083390
  H   9.85201952998952      5.30021504452554      4.91640195724409
  H   11.74921121653911      4.76725483934758      3.34902745219543
  H   12.77435979033502      2.45432203308190      3.42615083140683
