56
Coordinates from ORCA-job AKENAF-CH3OH_1_5_tpss_d4_lanl2dz_631gpol_Fe2.opt
  Fe  12.02759558305217     -0.19587436031505      5.04218145764656
  S   8.04140500207604      0.27551666800377      3.66572638953256
  N   12.71827030863719     -2.20723669734209      5.19263890235414
  N   13.50158957428367     -0.12150030124218      6.63275523468529
  N   10.71352653447069     -0.63610710715547      3.61539301104725
  C   12.33111559694463     -3.23590194750827      4.41051263706851
  C   12.81365397343244     -4.53601555565736      4.59032124185743
  C   13.73080440273808     -4.78801849142645      5.62159475595833
  C   14.13787381789975     -3.72745092769498      6.43602910336652
  C   13.61813523169636     -2.44762173839461      6.19149306619097
  C   13.97838230387550     -1.27509560361079      6.98307370893901
  C   13.80751725330041      1.11070483044564      7.39158582384066
  C   14.77206502390727      1.95750320672402      6.53788290400115
  C   14.33656470915103      0.89003357899226      8.81349351230597
  C   9.56313695818443     -0.26053144874130      3.61027517227679
  H   11.60751673295085     -2.98061974665665      3.63850190051595
  H   12.47037199605494     -5.33355679896320      3.93614328404718
  H   14.11897117826346     -5.79048569445642      5.78624717734086
  H   14.84743330532269     -3.87869318152947      7.24722528594009
  H   14.62563186738434     -1.41115646248981      7.85393167828407
  H   12.84560275202021      1.64026522694876      7.44399737643043
  H   15.75501676180640      1.46999870070172      6.47770753165332
  H   14.38154512961892      2.09120353405561      5.52242455656355
  H   14.90541862511195      2.94582916814008      6.99428380862949
  H   14.40644420347593      1.85827381787186      9.32353880376895
  H   13.66501633043285      0.24638875413860      9.39782919535937
  H   15.34213617437815      0.44704339658394      8.81486292031882
  N   11.43038016867032      1.91452495028381      5.05690137387895
  C   11.85667348503433      2.88050478706572      4.22409587947828
  C   11.18834223184628      4.10217097903130      4.08103211228178
  C   10.02956354627231      4.33062655689575      4.83180249504202
  C   9.57236344480157      3.32566766057961      5.69028760128924
  C   10.29135251597996      2.12648817636369      5.77055739735385
  C   9.85578919927137      1.01479580909626      6.62838577689844
  N   10.51350432963564     -0.09421881429968      6.61116238129494
  O   13.67184771685046      0.38518200145093      3.62726141256958
  C   10.10343182104510     -1.25172364123695      7.43365374782893
  C   9.35490239716416     -2.24525930036939      6.52287111825779
  H   8.40818384354915     -1.80868250896443      6.18178629242870
  H   9.95237155873616     -2.49670298609550      5.64033083949700
  H   9.14211307005296     -3.16489154224658      7.08230931742894
  C   9.28715028017281     -0.89436008388109      8.68324698208917
  H   9.17097838228749     -1.79152042180143      9.30326380676706
  H   9.78939433592629     -0.12550130853387      9.28640511936577
  H   8.27861509180644     -0.54278465692839      8.42737717786861
  H   11.05104180256893     -1.71460718282282      7.74609441341110
  H   8.97832739478102      1.17638813646142      7.26045501925369
  H   8.66552750209491      3.45360601260287      6.27691617400781
  H   9.48634485648743      5.26866306118401      4.74324546447492
  H   11.57324416899316      4.85326889543369      3.39588722918651
  H   12.76128450514717      2.65147609677946      3.66625902036283
  C   13.52340419536846     -0.06099252387794      2.24564752301501
  H   14.32694907553869      0.36774834563633      1.63606645191925
  H   13.53491041807291     -1.15593314960007      2.19147721804021
  H   12.54932658470832      0.30598469977979      1.92039410372181
  H   14.50924074666519      0.02312713259138      3.97943611106423
