454
write back file
Fe    9.170117    8.375111   14.021733
Cl   10.735018   16.180685   14.109603
N    10.253594   10.995944   14.053142
N    10.600153    8.466700   15.446529
N    10.774351    8.418228   12.788008
C     9.170117   10.188559   14.021733
C     9.868741   12.336515   14.049029
C    10.599685   13.511099   14.084364
C     9.869917   14.678356   14.057255
C    11.534946   10.297056   14.128486
C    11.553956    9.433308   15.364829
C    12.549454    9.564913   16.308585
C    12.612084    8.678903   17.353297
C    11.687840    7.662414   17.434997
C    10.697092    7.604643   16.466563
C    11.720462    9.378073   12.953277
C    12.876449    9.403436   12.187691
C    13.119287    8.407238   11.267865
C    12.191437    7.396949   11.128209
C    11.026890    7.455847   11.879400
C    11.759883    6.617462   18.504949
C    11.586585    6.988888   19.837948
C    11.375135    8.310577   20.254861
C    11.294183    8.645931   21.593470
C    11.386934    7.631415   22.561904
C    11.547721    6.346361   22.214165
C    11.650623    5.951827   20.869948
C    11.813687    4.647047   20.475470
C    12.024666    4.260967   19.177992
C    12.301022    2.930824   18.804079
C    12.589004    2.595470   17.543993
C    12.631983    3.581805   16.540037
C    12.357025    4.884049   16.844776
C    12.025749    5.295492   18.144123
C    12.434447    6.205174   10.241287
C    13.151525    5.131196   10.755604
C    13.698539    5.116261   12.079256
C    14.336804    4.021429   12.569082
C    14.477695    2.851917   11.780126
C    14.009699    2.842336   10.505083
C    13.328933    3.951258    9.957300
C    12.786145    3.908141    8.680388
C    12.036832    4.969719    8.164388
C    11.400061    4.878131    6.915519
C    10.622912    5.870102    6.485519
C    10.450796    7.064977    7.227736
C    11.056858    7.211518    8.459779
C    11.852425    6.140922    8.976901
Cl    7.605215   16.180685   13.933864
N     8.086639   10.995944   13.990325
N     7.740080    8.466700   12.596938
N     7.565882    8.418228   15.255459
C     8.471492   12.336515   13.994438
C     7.740548   13.511099   13.959103
C     8.470316   14.678356   13.986212
C     6.805287   10.297056   13.914981
C     6.786277    9.433308   12.678638
C     5.790779    9.564913   11.734882
C     5.728149    8.678903   10.690170
C     6.652393    7.662414   10.608470
C     7.643142    7.604643   11.576904
C     6.619771    9.378073   15.090190
C     5.463784    9.403436   15.855776
C     5.220946    8.407238   16.775602
C     6.148796    7.396949   16.915258
C     7.313343    7.455847   16.164067
C     6.580350    6.617462    9.538518
C     6.753648    6.988888    8.205518
C     6.965098    8.310577    7.788606
C     7.046050    8.645931    6.449997
C     6.953299    7.631415    5.481563
C     6.792512    6.346361    5.829302
C     6.689610    5.951827    7.173519
C     6.526546    4.647047    7.567997
C     6.315567    4.260967    8.865475
C     6.039211    2.930824    9.239388
C     5.751229    2.595470   10.499474
C     5.708250    3.581805   11.503430
C     5.983208    4.884049   11.198691
C     6.314484    5.295492    9.899344
C     5.905786    6.205174   17.802180
C     5.188708    5.131196   17.287863
C     4.641694    5.116261   15.964211
C     4.003429    4.021429   15.474385
C     3.862538    2.851917   16.263341
C     4.330534    2.842336   17.538384
C     5.011300    3.951258   18.086167
C     5.554088    3.908141   19.363079
C     6.303401    4.969719   19.879079
C     6.940172    4.878131   21.127948
C     7.717321    5.870102   21.557948
C     7.889437    7.064977   20.815731
C     7.283375    7.211518   19.583688
C     6.487808    6.140922   19.066566
H    12.009018   16.180685   14.109603
H    10.564064   10.973663   15.019236
H    11.023164   10.736335   13.444380
H     9.939142   11.932505   13.820336
H    10.312760    8.571448   16.414340
H    11.573855    8.182250   15.411627
H    10.488767    9.352039   14.962801
H    10.707997    8.436692   13.800668
H    10.550784    9.336362   12.417504
H    11.718443    8.164074   12.515388
H    10.259117   10.188559   14.021733
H     8.807117   11.180293   14.287467
H     8.807117    9.922825   13.029999
H     8.807117    9.462559   14.747733
H    10.108114   13.398749   14.065767
H     9.073276   12.154990   13.327776
H     9.539932   12.022870   15.038692
H    10.753642   11.769451   13.763881
H    11.688685   13.511099   14.084364
H    10.236685   14.502833   14.350098
H    10.236685   13.245365   13.092630
H    10.236685   12.785099   14.810364
H    10.958917   14.678356   14.057255
H     9.506917   15.670090   14.322989
H     9.506917   14.412622   13.065521
H     9.506917   13.952356   14.783255
H    12.623946   10.297056   14.128486
H    11.171946    9.571056   13.402486
H    11.171946   11.288790   13.862752
H    11.171946   10.031322   15.120220
H    12.642956    9.433308   15.364829
H    11.190956   10.425042   15.630563
H    11.190956    9.167574   14.373095
H    11.190956    8.707308   16.090829
H    13.638454    9.564913   16.308585
H    12.186454    8.838913   17.034585
H    12.186454   10.556647   16.574319
H    12.186454    9.299179   15.316851
H    13.701084    8.678903   17.353297
H    12.249084    9.670637   17.619031
H    12.249084    8.413169   16.361563
H    12.249084    7.952903   18.079297
H    12.776840    7.662414   17.434997
H    11.324840    8.654148   17.700731
H    11.324840    7.396680   16.443263
H    11.324840    6.936414   18.160997
H    11.786092    7.604643   16.466563
H    10.334092    8.596377   16.732297
H    10.334092    7.338909   15.474829
H    10.334092    6.878643   17.192563
H    12.809462    9.378073   12.953277
H    11.357462   10.369807   13.219011
H    11.357462    9.112339   11.961543
H    11.357462    8.652073   13.679277
H    13.965449    9.403436   12.187691
H    12.513449    9.137702   11.195957
H    12.513449   10.395170   12.453425
H    12.513449    8.677436   12.913691
H    14.208287    8.407238   11.267865
H    12.756287    9.398972   11.533599
H    12.756287    8.141504   10.276131
H    12.756287    7.681238   11.993865
H    13.280437    7.396949   11.128209
H    11.828437    8.388683   11.393943
H    11.828437    7.131215   10.136475
H    11.828437    6.670949   11.854209
H    12.115890    7.455847   11.879400
H    10.663890    8.447581   12.145134
H    10.663890    7.190113   10.887666
H    10.663890    6.729847   12.605400
H    11.423767    7.153413   17.618550
H    12.161260    7.326545   19.227458
H    10.919471    6.084756   18.947502
H    12.535033    5.905135   18.226287
H    12.675585    6.988888   19.837948
H    11.223585    7.980622   20.103682
H    11.223585    6.723154   18.846214
H    11.223585    6.262888   20.563948
H    12.464135    8.310577   20.254861
H    11.012135    9.302311   20.520595
H    11.012135    8.044843   19.263127
H    11.012135    7.584577   20.980861
H    12.383183    8.645931   21.593470
H    10.931183    9.637665   21.859204
H    10.931183    8.380197   20.601736
H    10.931183    7.919931   22.319470
H    12.475934    7.631415   22.561904
H    11.023934    8.623149   22.827638
H    11.023934    7.365681   21.570170
H    11.023934    6.905415   23.287904
H    12.636721    6.346361   22.214165
H    11.184721    7.338095   22.479899
H    11.184721    5.620361   22.940165
H    11.184721    6.080627   21.222431
H    12.739623    5.951827   20.869948
H    11.287623    6.943561   21.135682
H    11.287623    5.686093   19.878214
H    11.287623    5.225827   21.595948
H    12.902687    4.647047   20.475470
H    11.450687    5.638781   20.741204
H    11.450687    4.381313   19.483736
H    11.450687    3.921047   21.201470
H    13.113666    4.260967   19.177992
H    11.661666    5.252701   19.443726
H    11.661666    3.995233   18.186258
H    11.661666    3.534967   19.903992
H    13.390022    2.930824   18.804079
H    11.938022    3.922558   19.069813
H    11.938022    2.665090   17.812345
H    11.938022    2.204824   19.530079
H    13.678004    2.595470   17.543993
H    12.226004    2.329736   16.552259
H    12.226004    1.869470   18.269993
H    12.226004    3.587204   17.809727
H    13.720983    3.581805   16.540037
H    12.268983    4.573539   16.805771
H    12.268983    3.316071   15.548303
H    12.268983    2.855805   17.266037
H    11.904524    5.806799   16.484643
H    12.690731    5.020351   17.872386
H    11.623310    4.080309   16.804965
H    13.209535    4.628737   16.217110
H    13.114749    5.295492   18.144123
H    11.662749    6.287226   18.409857
H    11.662749    5.029758   17.152389
H    11.662749    4.569492   18.870123
H    11.953666    6.846097   10.978843
H    13.505014    6.404375   10.230073
H    12.262109    5.161469   10.499939
H    12.016998    6.408755    9.256293
H    14.240525    5.131196   10.755604
H    12.788525    6.122930   11.021338
H    12.788525    4.865462    9.763870
H    12.788525    4.405196   11.481604
H    14.787539    5.116261   12.079256
H    13.335539    6.107995   12.344990
H    13.335539    4.850527   11.087522
H    13.335539    4.390261   12.805256
H    15.425804    4.021429   12.569082
H    13.973804    5.013163   12.834816
H    13.973804    3.295429   13.295082
H    13.973804    3.755695   11.577348
H    15.566695    2.851917   11.780126
H    14.114695    3.843651   12.045860
H    14.114695    2.586183   10.788392
H    14.114695    2.125917   12.506126
H    15.098699    2.842336   10.505083
H    13.646699    3.834070   10.770817
H    13.646699    2.116336   11.231083
H    13.646699    2.576602    9.513349
H    14.417933    3.951258    9.957300
H    12.965933    4.942992   10.223034
H    12.965933    3.685524    8.965566
H    12.965933    3.225258   10.683300
H    13.875145    3.908141    8.680388
H    12.423145    3.182141    9.406388
H    12.423145    3.642407    7.688654
H    12.423145    4.899875    8.946122
H    13.125832    4.969719    8.164388
H    11.673832    5.961453    8.430122
H    11.673832    4.703985    7.172654
H    11.673832    4.243719    8.890388
H    12.489061    4.878131    6.915519
H    11.037061    4.612397    5.923785
H    11.037061    4.152131    7.641519
H    11.037061    5.869865    7.181253
H    11.711912    5.870102    6.485519
H    10.259912    6.861836    6.751253
H    10.259912    5.604368    5.493785
H    10.259912    5.144102    7.211519
H    11.539796    7.064977    7.227736
H    10.087796    8.056711    7.493470
H    10.087796    6.799243    6.236002
H    10.087796    6.338977    7.953736
H    12.145858    7.211518    8.459779
H    10.693858    8.203252    8.725513
H    10.693858    6.945784    7.468045
H    10.693858    6.485518    9.185779
H    12.941425    6.140922    8.976901
H    11.489425    7.132656    9.242635
H    11.489425    5.875188    7.985167
H    11.489425    5.414922    9.702901
H     8.879215   16.180685   13.933864
H     8.749005   10.329432   14.374067
H     8.582689   11.681259   13.429520
H     7.601968   11.465897   14.748258
H     8.752945    8.450520   12.660719
H     7.432707    9.396425   12.329808
H     7.434241    7.795800   11.899384
H     7.632236    8.436692   14.242799
H     8.466034    8.162975   15.648902
H     7.296977    9.336655   15.593700
H     8.232119   13.398749   13.977700
H     7.835609   11.809884   13.284344
H     8.302265   11.942004   14.995260
H     9.515975   12.195423   13.720449
H     8.829548   13.511099   13.959103
H     7.377548   14.502833   14.224837
H     7.377548   13.245365   12.967369
H     7.377548   12.785099   14.685103
H     9.559316   14.678356   13.986212
H     8.107316   15.670090   14.251946
H     8.107316   14.412622   12.994478
H     8.107316   13.952356   14.712212
H     7.894287   10.297056   13.914981
H     6.442287   11.288790   14.180715
H     6.442287   10.031322   12.923247
H     6.442287    9.571056   14.640981
H     7.875277    9.433308   12.678638
H     6.423277   10.425042   12.944372
H     6.423277    9.167574   11.686904
H     6.423277    8.707308   13.404638
H     6.879779    9.564913   11.734882
H     5.427779   10.556647   12.000616
H     5.427779    9.299179   10.743148
H     5.427779    8.838913   12.460882
H     6.817149    8.678903   10.690170
H     5.365149    9.670637   10.955904
H     5.365149    8.413169    9.698436
H     5.365149    7.952903   11.416170
H     7.741393    7.662414   10.608470
H     6.289393    8.654148   10.874204
H     6.289393    7.396680    9.616736
H     6.289393    6.936414   11.334470
H     8.732142    7.604643   11.576904
H     7.280142    8.596377   11.842638
H     7.280142    7.338909   10.585170
H     7.280142    6.878643   12.302904
H     7.708771    9.378073   15.090190
H     6.256771   10.369807   15.355924
H     6.256771    9.112339   14.098456
H     6.256771    8.652073   15.816190
H     6.552784    9.403436   15.855776
H     5.100784   10.395170   16.121510
H     5.100784    9.137702   14.864042
H     5.100784    8.677436   16.581776
H     6.309946    8.407238   16.775602
H     4.857946    9.398972   17.041336
H     4.857946    8.141504   15.783868
H     4.857946    7.681238   17.501602
H     7.237796    7.396949   16.915258
H     5.785796    8.388683   17.180992
H     5.785796    7.131215   15.923524
H     5.785796    6.670949   17.641258
H     8.402343    7.455847   16.164067
H     6.950343    8.447581   16.429801
H     6.950343    7.190113   15.172333
H     6.950343    6.729847   16.890067
H     7.669350    6.617462    9.538518
H     6.217350    7.609196    9.804252
H     6.217350    6.351728    8.546784
H     6.217350    5.891462   10.264518
H     7.842648    6.988888    8.205518
H     6.390648    7.980622    8.471252
H     6.390648    6.723154    7.213784
H     6.390648    6.262888    8.931518
H     8.054098    8.310577    7.788606
H     6.602098    9.302311    8.054340
H     6.602098    8.044843    6.796872
H     6.602098    7.584577    8.514606
H     8.135050    8.645931    6.449997
H     6.683050    9.637665    6.715731
H     6.683050    7.919931    7.175997
H     6.683050    8.380197    5.458263
H     8.042299    7.631415    5.481563
H     6.590299    8.623149    5.747297
H     6.590299    7.365681    4.489829
H     6.590299    6.905415    6.207563
H     7.881512    6.346361    5.829302
H     6.429512    7.338095    6.095036
H     6.429512    6.080627    4.837568
H     6.429512    5.620361    6.555302
H     7.778610    5.951827    7.173519
H     6.326610    6.943561    7.439253
H     6.326610    5.686093    6.181785
H     6.326610    5.225827    7.899519
H     7.615546    4.647047    7.567997
H     6.163546    4.381313    6.576263
H     6.163546    3.921047    8.293997
H     6.163546    5.638781    7.833731
H     7.404567    4.260967    8.865475
H     5.952567    5.252701    9.131209
H     5.952567    3.995233    7.873741
H     5.952567    3.534967    9.591475
H     7.128211    2.930824    9.239388
H     5.676211    3.922558    9.505122
H     5.676211    2.665090    8.247654
H     5.676211    2.204824    9.965388
H     6.840229    2.595470   10.499474
H     5.388229    2.329736    9.507740
H     5.388229    1.869470   11.225474
H     5.388229    3.587204   10.765208
H     6.797250    3.581805   11.503430
H     5.345250    4.573539   11.769164
H     5.345250    3.316071   10.511696
H     5.345250    2.855805   12.229430
H     6.435709    5.806799   11.558824
H     6.015247    4.132581   11.986212
H     4.947826    5.072622   10.918791
H     6.534050    4.524194   10.330936
H     7.403484    5.295492    9.899344
H     5.951484    6.287226   10.165078
H     5.951484    5.029758    8.907610
H     5.951484    4.569492   10.625344
H     6.386567    6.846097   17.064624
H     5.785001    6.753073   18.735528
H     4.928703    5.896774   17.433237
H     6.522874    5.324752   17.975331
H     6.277708    5.131196   17.287863
H     4.825708    6.122930   17.553597
H     4.825708    4.865462   16.296129
H     4.825708    4.405196   18.013863
H     5.730694    5.116261   15.964211
H     4.278694    4.850527   14.972477
H     4.278694    6.107995   16.229945
H     4.278694    4.390261   16.690211
H     5.092429    4.021429   15.474385
H     3.640429    5.013163   15.740119
H     3.640429    3.755695   14.482651
H     3.640429    3.295429   16.200385
H     4.951538    2.851917   16.263341
H     3.499538    3.843651   16.529075
H     3.499538    2.586183   15.271607
H     3.499538    2.125917   16.989341
H     5.419534    2.842336   17.538384
H     3.967534    3.834070   17.804118
H     3.967534    2.576602   16.546650
H     3.967534    2.116336   18.264384
H     6.100300    3.951258   18.086167
H     4.648300    4.942992   18.351901
H     4.648300    3.685524   17.094433
H     4.648300    3.225258   18.812167
H     6.643088    3.908141   19.363079
H     5.191088    4.899875   19.628813
H     5.191088    3.642407   18.371345
H     5.191088    3.182141   20.089079
H     7.392401    4.969719   19.879079
H     5.940401    5.961453   20.144813
H     5.940401    4.703985   18.887345
H     5.940401    4.243719   20.605079
H     8.029172    4.878131   21.127948
H     6.577172    5.869865   21.393682
H     6.577172    4.612397   20.136214
H     6.577172    4.152131   21.853948
H     8.806321    5.870102   21.557948
H     7.354321    5.144102   22.283948
H     7.354321    5.604368   20.566214
H     7.354321    6.861836   21.823682
H     8.978437    7.064977   20.815731
H     7.526437    8.056711   21.081465
H     7.526437    6.799243   19.823997
H     7.526437    6.338977   21.541731
H     8.372375    7.211518   19.583688
H     6.920375    8.203252   19.849422
H     6.920375    6.485518   20.309688
H     6.920375    6.945784   18.591954
H     7.576808    6.140922   19.066566
H     6.124808    7.132656   19.332300
H     6.124808    5.875188   18.074832
H     6.124808    5.414922   19.792566
