16
Center, direct neighbour rings
Fe    9.170100    8.375100   14.021700
C    11.554000    9.433300   15.364800
C     6.786300    9.433300   12.678600
N     8.086600   10.995900   13.990300
N    10.774400    8.418200   12.788000
N     7.565900    8.418200   15.255500
C     6.619800    9.378100   15.090200
C     9.868700   12.336500   14.049000
N    10.253600   10.995900   14.053100
C    11.534900   10.297100   14.128500
C     6.805300   10.297100   13.915000
N     7.740100    8.466700   12.596900
C    11.720500    9.378100   12.953300
N    10.600200    8.466700   15.446500
C     8.471500   12.336500   13.994400
C     9.170100   10.188600   14.021700
