52
neighbouring H atoms added
H     8.064400    6.682200   16.317000
N    10.774400    8.418200   12.788000
N     7.565900    8.418200   15.255500
C    12.549500    9.564900   16.308600
H    10.275900    6.682200   11.726500
C     6.805300   10.297100   13.915000
H     4.953400    8.778800    9.931400
C     7.313300    7.455800   16.164100
C     9.869900   14.678400   14.057300
H    13.386800    8.778800   18.112100
C     8.471500   12.336500   13.994400
H     5.058900   10.367000   11.818200
C    12.612100    8.678900   17.353300
C    11.026900    7.455800   11.879400
H    12.349500   11.018700   14.167400
N     8.086600   10.995900   13.990300
C    11.534900   10.297100   14.128500
C     7.740500   13.511100   13.959100
C    11.687800    7.662400   17.435000
H    13.594000   10.212800   12.314000
C     6.652400    7.662400   10.608500
H     8.385900    6.811700   11.503600
C    11.554000    9.433300   15.364800
C     6.786300    9.433300   12.678600
H     9.954300    6.811700   16.539900
C     9.868700   12.336500   14.049000
H     6.652500   13.512100   13.912600
C    12.876400    9.403400   12.187700
C     5.463800    9.403400   15.855800
C     7.643100    7.604600   11.576900
N     7.740100    8.466700   12.596900
N    10.600200    8.466700   15.446500
C     5.790800    9.564900   11.734900
C    10.599700   13.511100   14.084400
C    10.697100    7.604600   16.466600
H     4.315000    8.417400   17.379900
H     4.746300   10.212800   15.729500
Fe    9.170100    8.375100   14.021700
C    13.119300    8.407200   11.267900
N    10.253600   10.995900   14.053100
C     5.220900    8.407200   16.775600
H    14.025200    8.417400   10.663600
C     6.619800    9.378100   15.090200
H     5.990700   11.018700   13.876000
C     5.728100    8.678900   10.690200
H    13.281300   10.367000   16.225300
C    11.720500    9.378100   12.953300
C     8.470300   14.678400   13.986200
C    12.191400    7.396900   11.128200
C     6.148800    7.396900   16.915300
C     9.170100   10.188600   14.021700
H    11.687700   13.512100   14.130900
