78
Coordinates from ORCA-job BARKUC-CH3OH_2_5_tpss_d4_lanl2dz_631gpol_Mn3.opt
  C   2.67809706916160      1.80002185115804     16.39298718252087
  C   3.75524177682091      2.23846039207776     17.17692576020985
  H   3.90434492125049      1.75461709837892     18.13792534359018
  C   4.67032848421394      3.25828771448921     16.81283669694155
  C   4.47179565178030      3.87066374483096     15.58058162824077
  H   5.13382052796747      4.66462282033719     15.24178820311968
  C   3.39202856518183      3.49272237916281     14.74035788153323
  C   2.50332937946786      2.44430753556509     15.13969637918774
  C   3.23630340944163      4.17956753797283     13.49774116614447
  H   4.03723063937592      4.86738590083907     13.20577827800455
  C   5.80445097540313      3.63723035760742     17.77193606200116
  C   5.18535976289016      4.14671810017622     19.09989349479414
  H   5.98422095156613      4.40875231896709     19.80538387225472
  H   4.55665213272868      3.38256517679121     19.57727716570735
  H   4.57066972464589      5.04117112578338     18.93013896994156
  C   6.67028519195995      2.38113094392512     18.05296052160940
  H   6.08350940263671      1.57353524692643     18.51046260799441
  H   7.47866126429866      2.63919537362777     18.74892544683495
  H   7.12145293482142      1.99737083114755     17.12846567957697
  C   6.70769094306195      4.74117320378221     17.18638142631409
  H   7.18243829439865      4.42281720793615     16.24750574599144
  H   7.50870793207741      4.97208125097314     17.89879782749751
  H   6.15113667959037      5.67185153452272     17.00452847566792
  C   1.75503117413661      0.65649283930771     16.84859307881609
  C   2.12901015880103      0.14227987168520     18.25620413745299
  H   1.43531930214946     -0.65885142196982     18.54001379054112
  H   2.05394560695994      0.93104092233199     19.01739972786082
  H   3.14338843670680     -0.27754173647166     18.28183104013517
  C   1.88152228210064     -0.53433977036986     15.86237010866920
  H   1.22454783751423     -1.35342655394450     16.18462591291214
  H   2.91127175356788     -0.91429636205729     15.84614564012325
  H   1.60584265624391     -0.24471750587219     14.84126856275914
  C   0.28597236023705      1.15125071110687     16.91068553518947
  H   -0.06679600718323      1.49028864703965     15.92810169924372
  H   0.18246174206817      1.97958013165541     17.62533261499185
  H   -0.36560307511981      0.33489874205021     17.24966691937335
  C   2.14378912502485      4.76172101100027     11.39627172622792
  H   2.39472522733461      4.05288983937233     10.59655839206198
  H   2.86069374119567      5.59300476348746     11.35683295614964
  C   0.71153530982260      5.28204576246852     11.25106497216926
  H   0.52232950509162      5.68657941680263     10.24806682047288
  H   0.54419308003438      6.07441824989082     11.98883409473348
  C   -0.60870010606760      3.34917688139478     10.34811183743837
  H   -0.77956259066800      3.99319721915645      9.47504239097901
  H   -1.54691291370074      2.82340159282270     10.56955735011966
  C   0.47309738630576      2.32430776638164     10.08568213947780
  C   0.87284691426842      1.93355394667642      8.80619288710840
  H   0.43739899512139      2.40134105412081      7.92584403125608
  C   1.84126570717369      0.92675367640733      8.68304840259206
  H   2.16962768699158      0.60171293122642      7.69830426438722
  C   2.38534364418182      0.35306499162652      9.83968247439724
  H   3.14090590577563     -0.42601061534645      9.78094170502253
  C   1.94280626250983      0.80639300515602     11.08417830842356
  H   2.33853778655290      0.41085281367574     12.01730797001121
  C   -1.53962356183356      4.77212884339174     12.14043428906068
  H   -2.28441297925322      3.96668455603518     12.16648796271834
  H   -1.92278033860001      5.57648465469358     11.49763950929740
  C   -1.27079673011361      5.26142960817705     13.54720741691041
  C   -1.82520843873470      6.42698498844517     14.07849153984963
  H   -2.46616789965698      7.05910449817671     13.46780055793305
  C   -1.54283765704185      6.76104785401101     15.41134722842725
  H   -1.96611912245859      7.66162071475344     15.85058953312354
  C   -0.70479563311286      5.92877330878298     16.16320817702677
  H   -0.46107482016147      6.15945859936189     17.19695196905433
  C   -0.17750241799945      4.78514473245987     15.55880310357482
  H   0.48407802641552      4.10665052119447     16.09290170311379
  N   2.20828040119154      4.06422399163756     12.68994454069783
  N   0.99734072173751      1.76510967552259     11.20482641705606
  N   -0.28365861757218      4.18369855434354     11.55637131886775
  N   -0.46243533815487      4.45173688466106     14.28039444808705
  O   1.52436730292633      2.02711328260859     14.31188263091010
  O   -1.18739924616165      1.86375523356081     13.31253609212184
  Mn  0.62440292658286      2.94858172318142     13.04081765300571
  C   -1.26309991265086      0.40102068427850     13.18139597156166
  H   -2.30931245723064      0.09723526451642     13.27904058548313
  H   -0.63804489461861     -0.07416946375375     13.94314229782980
  H   -0.89085770394507      0.17697004163404     12.18164712957919
  H   -1.53911311942592      2.11732878053535     14.19275061793283
