74
Coordinates from ORCA-job BARKUC-OH_2_4_tpss_d4_lanl2dz_631gpol_Mn3.opt
  C   2.44533683850194      1.74149990359654     16.33086713103266
  C   3.58965081420331      2.07911007956286     17.06716710380786
  H   3.78502914126504      1.51702620099011     17.97548776906201
  C   4.51307422225767      3.09520251901428     16.71643544322716
  C   4.25392619425759      3.81211679005542     15.54535948705422
  H   4.92750522439469      4.60265272522581     15.22152001638750
  C   3.11740814305708      3.53358623660818     14.75308311599863
  C   2.21409577933979      2.49296688473769     15.14167991236923
  C   2.93945200329756      4.28661496801876     13.54511165724886
  H   3.74186698023959      4.98190969362665     13.27511520117007
  C   5.73052198469168      3.35556038558785     17.60595596698865
  C   5.24366276257291      3.72512839974874     19.03321242683976
  H   6.11228019107371      3.89172734598346     19.68259513748300
  H   4.64159048795818      2.92397070049193     19.48214647844208
  H   4.64289005971655      4.64430242373894     19.02113025024573
  C   6.58422581066702      2.05963597605346     17.67208831936564
  H   6.01871285196322      1.21789353043330     18.09319859540142
  H   7.45701960440310      2.22993195725362     18.31501142221369
  H   6.94219274505681      1.77094996911503     16.67508223420750
  C   6.60803016221754      4.50281470984959     17.06657006212092
  H   7.00925698095824      4.27611699463525     16.06855507118931
  H   7.46278385758839      4.65113534665073     17.73704412604832
  H   6.05687640359714      5.45303722160830     17.02110704287118
  C   1.48564754444712      0.62904214792251     16.78051401656040
  C   1.95814704484502     -0.03761098765905     18.09145160796837
  H   1.23947876231026     -0.81733619011181     18.37144413968824
  H   2.00826760671687      0.67732547056665     18.92395152372871
  H   2.93898955874762     -0.51899068755728     17.97813499101501
  C   1.40427009777797     -0.47621677131402     15.69306374957541
  H   0.74548578315275     -1.28165735163340     16.04237922394150
  H   2.39544958149387     -0.91005769511597     15.50443449292948
  H   1.00370212766304     -0.09177784699266     14.74765648938206
  C   0.07832928948897      1.23278290374763     17.03903378736452
  H   -0.34582412797449      1.68706113169408     16.13516186762926
  H   0.12238575461853      1.99620683391400     17.82789204322491
  H   -0.60345531802254      0.44150248679283     17.37667902756944
  C   1.88115619458923      4.90175315846208     11.45453310912923
  H   2.26295418676967      4.22871382971780     10.67461883284791
  H   2.51524810791005      5.79800841116000     11.47254423013340
  C   0.42495373732260      5.28588410021739     11.18976650056366
  H   0.26815142115741      5.61705702503098     10.15569285426746
  H   0.13568386870013      6.09708182825897     11.86609330221242
  C   -0.65907237589965      3.16589752652169     10.34362141460444
  H   -0.77166644486089      3.71347514580460      9.39911863152088
  H   -1.57841903518795      2.59901447212145     10.53548353966148
  C   0.49886112268860      2.19661542839848     10.30887557798522
  C   0.93442732770785      1.53748561833171      9.15871798824253
  H   0.47548385821334      1.75843505358960      8.19791940528521
  C   1.95768467667669      0.58624054257576      9.26846612545111
  H   2.30740507112747      0.05707895600713      8.38501151949245
  C   2.52488015895878      0.32674289585170     10.52288355913856
  H   3.31766923763259     -0.40630691342748     10.64473611624897
  C   2.05841031728559      1.03086163920642     11.63243944895731
  H   2.45527244547519      0.88140742031708     12.63175462480416
  C   -1.80757592351640      4.61946919135673     12.02551601322933
  H   -2.49244826083861      3.76365459729382     12.05121533104249
  H   -2.22071559386604      5.40014168817072     11.37343930761187
  C   -1.57414429983073      5.11162176428863     13.43296439386710
  C   -2.32342886017295      6.11106704503765     14.05213951912707
  H   -3.11239484797988      6.61794300328601     13.50162044400978
  C   -2.04709581678485      6.44009912201762     15.38630061676055
  H   -2.62408157455654      7.21291015976276     15.88892798180441
  C   -1.01966257584441      5.76844636606011     16.05924612325819
  H   -0.77698925040155      5.99630371787305     17.09358832673264
  C   -0.29671322575299      4.78660154097135     15.38169848570299
  H   0.50766334346379      4.23307422084252     15.85511344752325
  N   1.91234827816488      4.19267346264754     12.74271170854283
  N   1.06509086173592      1.93957921945446     11.51817204355307
  N   -0.49059073565551      4.12030704675204     11.49375018523865
  N   -0.57394978327363      4.46871992889960     14.09846153043334
  O   1.14792456214308      2.19543775667225     14.38697796284486
  O   -1.18092966823480      2.04398275939532     13.02924674131028
  Mn  0.31853536208030      3.02833729834073     13.02365111942470
  H   -1.15942881568967      1.31386956589148     13.68492100608224
