63
Coordinates from ORCA-job CEDVEN-OH_0_4_tpss_d4_lanl2dz_631gpol_Co3.opt
  Co  -0.25255824871379      0.80712530414316      6.45208981783835
  C   -0.65242157775758      2.63383028746624      5.55495077567951
  H   -1.72003151891613      2.50868451330157      5.36664054077434
  H   -0.04912192994026      2.68785465960407      4.65092335808356
  H   -0.42183393685577      3.40554022362151      6.28700283051957
  O   0.54629585799108     -0.60912189342479      7.24627261810572
  N   1.57773257943850      1.70057824850444      6.44689298283478
  C   2.50117218211328      1.60773269752804      5.43458245889716
  C   3.69724646536300      2.34861962086671      5.82713539321866
  C   4.92311379106439      2.56387031178656      5.18921520070663
  H   5.12087152578239      2.13754820264960      4.20802399380418
  C   5.87563849568608      3.34254275423467      5.85776983704598
  H   6.84141257516367      3.52932968970822      5.39057589946535
  C   5.60797630395881      3.89346938945372      7.12995919673461
  H   6.37240352739940      4.49449839567973      7.62016974071784
  C   4.38011680146893      3.68137212475583      7.76903564734739
  H   4.16526446404670      4.10357454476933      8.74838624910618
  C   3.42827417648267      2.90180421601759      7.10384039484215
  C   2.07353669611506      2.48620225966266      7.45889232798065
  N   2.36691192131550      0.97307507526858      4.26435861297239
  N   0.06590654687467      0.20532784195176      4.56950520980365
  C   -0.82064292089237     -0.51581234410588      3.81153882846442
  C   -0.17485658650848     -0.88826702060873      2.55539852906356
  C   -0.62128731107346     -1.61440455697153      1.44684656171454
  H   -1.62856267019158     -2.02441269107533      1.42071056342229
  C   0.27291630684912     -1.78928670057054      0.38349438093446
  H   -0.04110737656249     -2.34852537309960     -0.49659157418240
  C   1.57881678725976     -1.25348957985890      0.42908435963759
  H   2.24657102337782     -1.40942150641567     -0.41690703503845
  C   2.02680412982460     -0.52782301655303      1.53939233850410
  H   3.03090415907082     -0.11153241388194      1.58369632708570
  C   1.13352234962192     -0.35123671958662      2.60100238723899
  C   1.25825022507296      0.33620410453099      3.88293151932339
  N   -2.08050507974348     -0.84815058644269      4.11556433758811
  N   -2.13330739513757      0.20133882781483      6.31559372888873
  C   -3.10383690651099      0.37767824276366      7.28313238469773
  C   -4.32963502480848     -0.28171594685297      6.84617711906175
  C   -5.58809935860822     -0.41540553821713      7.44300296032179
  H   -5.78663591041918      0.01552130715509      8.42187124963808
  C   -6.56893105899050     -1.11936156813171      6.73578262994982
  H   -7.55997871036191     -1.24418392216477      7.16947925315072
  C   -6.29918165331087     -1.67450208192411      5.46421908040947
  H   -7.08776852918344     -2.21566711342754      4.94350683376917
  C   -5.04123214680808     -1.54065693179411      4.86609048217828
  H   -4.82470878986204     -1.96383860701183      3.88766389023277
  C   -4.05905098219660     -0.83797335830894      5.57296374264294
  C   -2.67319250992367     -0.50771343506997      5.25911038105428
  N   -2.99852723648513      1.03811450378862      8.43544507300958
  N   -0.69778329609443      1.77497271368980      8.14256478599722
  C   0.19681325565393      2.51697797712050      8.89074004802287
  C   -0.45665658047620      2.91542660961972     10.13426272990923
  C   -0.01380811480742      3.65881882948375     11.23334670423730
  H   0.99604274840677      4.06256842008350     11.25967280531346
  C   -0.91429751876011      3.85876788448192     12.28654592924335
  H   -0.60366823221860      4.43339899896956     13.15786551041402
  C   -2.22223323968596      3.32765116687791     12.24237331689844
  H   -2.89492208018768      3.50253709724919     13.08071095396014
  C   -2.66570581554839      2.58172567871260     11.14354050113734
  H   -3.67030036357393      2.16646686196657     11.10186546547467
  C   -1.76723705187878      2.38340437755532     10.09068828888921
  C   -1.88532040051452      1.67175001868927      8.82105283611281
  N   1.45253214540790      2.84991718599120      8.58677449205081
  H   1.51155102269835     -0.48441826201969      7.37757221309866
