62
Coordinates from ORCA-job CEDVEN-oxo_0_1_tpss_d4_lanl2dz_631gpol_Co3.opt
  Co  -0.24161977792701      0.95169944970624      6.36758994557733
  C   -1.05092665119949      2.65159152565359      5.55126670538561
  H   -1.30577881003436      2.39432702622132      4.51978547268927
  H   -0.25852089467923      3.40284165617399      5.61284396047362
  H   -1.93075896045178      2.93197544120578      6.13434925080206
  O   0.11299656291555     -0.48874508377045      7.29127018512112
  N   1.52521103944897      1.74001410063051      6.39272111630113
  C   2.48953621238842      1.61009454262054      5.41288347590957
  C   3.69854537159865      2.30675379152798      5.82059275534585
  C   4.93976743609861      2.47325817214793      5.19678093325942
  H   5.13626390754060      2.03736883670758      4.21985457918043
  C   5.90635560149203      3.21764306407403      5.88158428050244
  H   6.88610206370093      3.37008677312982      5.43143653336251
  C   5.63798372861883      3.77830003242371      7.15125747446188
  H   6.41664527397173      4.35070884947409      7.65307034102480
  C   4.39523265051173      3.61077063209374      7.77189352033490
  H   4.17854201401896      4.03703533953295      8.74877986967590
  C   3.43062138346967      2.86565389791587      7.08465733262330
  C   2.06428775789398      2.49684821334102      7.41819789686385
  N   2.39996365950823      0.97310936493627      4.25340780276397
  N   0.10210882082276      0.24656964662791      4.59883811327876
  C   -0.78851810866339     -0.47737188066557      3.82507357234393
  C   -0.15033540277506     -0.85397793746663      2.57402992833286
  C   -0.60993442907053     -1.57669979294309      1.46752558585017
  H   -1.62093012313688     -1.97713311378414      1.44414346818950
  C   0.28216729202707     -1.75843386942042      0.40509163981920
  H   -0.03624958209149     -2.31547592564396     -0.47473163977572
  C   1.59360970454364     -1.23261319799627      0.44897032961891
  H   2.25842536492338     -1.39544393948828     -0.39796820067179
  C   2.05005517889187     -0.50976815912287      1.55660798014812
  H   3.05679522207670     -0.10045688643205      1.60058111809331
  C   1.15580628162798     -0.33054067587622      2.61744190862786
  C   1.28361605842342      0.35390425404960      3.89364876890130
  N   -2.04030871739134     -0.81301006376541      4.10419833785740
  N   -2.07626185043749      0.28856029010105      6.26959720835901
  C   -3.02962488372173      0.41846326452497      7.25715072929266
  C   -4.24608409076234     -0.26695385432827      6.84675602012569
  C   -5.48697202873086     -0.42825527734439      7.47124713309688
  H   -5.67707771852804     -0.00094768755108      8.45323746992667
  C   -6.46168257380543     -1.15952137251514      6.78253027319406
  H   -7.44074062600209     -1.30946163915870      7.23503647262923
  C   -6.20137054943540     -1.71056472253390      5.50791670229186
  H   -6.98498934589052     -2.27388133008980      5.00351289322712
  C   -4.95842546140953     -1.54666386436560      4.88505117330062
  H   -4.74810201484048     -1.96725547781393      3.90428089422338
  C   -3.98626584230520     -0.81667653484461      5.57633914768218
  C   -2.61671993530809     -0.45329494285181      5.24447555541873
  N   -2.93454413412617      1.05949619991781      8.41459474046146
  N   -0.63409999721060      1.79264807830617      8.08344690801852
  C   0.24318088721696      2.53075989921709      8.84506806656103
  C   -0.40386795031178      2.92397238741501     10.08754568320950
  C   0.04177685710848      3.67086022110946     11.18291765015247
  H   1.04939020115490      4.07980660753487     11.20645387823313
  C   -0.85860507944849      3.86315187360544     12.23718945881089
  H   -0.54969742049606      4.43693549678747     13.10962175649075
  C   -2.16463302465717      3.32543684350677     12.19451679044858
  H   -2.83575722677814      3.49569274188046     13.03498812644912
  C   -2.60806625032947      2.57973798935924     11.09625910733273
  H   -3.61061433126148      2.16007185072114     11.05390029696621
  C   -1.70562485510582      2.38805647586939     10.04515120688707
  C   -1.82139846968409      1.68131848256872      8.77860109451831
  N   1.49282058601300      2.87082391715295      8.55433922041895
