63
Coordinates from ORCA-job CEDVEN-OH_0_6_tpss_d4_lanl2dz_631gpol_Co3.opt
  Co  -0.27036749676381      0.81127787184493      6.45620146020293
  C   -0.36702106414806      2.73189209630489      5.51710776939991
  H   -1.43874355657964      2.68318776304126      5.30963912931728
  H   0.25302522605848      2.74699067624499      4.62065473944927
  H   -0.09861961192327      3.48927119361656      6.25353751173157
  O   0.32804647343251     -0.68547387773549      7.30597359624421
  N   1.64141972970403      1.50913796223826      6.54953049715468
  C   2.52186699505118      1.50007344390383      5.48871851484429
  C   3.66684095992270      2.36717300319742      5.81515057416480
  C   4.83139760967959      2.67391203656557      5.11524701819088
  H   5.02783846381166      2.23186189437522      4.14083590420260
  C   5.73415758568223      3.57175439658225      5.71382162057685
  H   6.65577250553492      3.83269899019070      5.19609213845128
  C   5.46427075672456      4.14120610905456      6.97047605135958
  H   6.18122323249097      4.83467923591470      7.40723179920573
  C   4.28355617326500      3.83341971097930      7.67050491884063
  H   4.06447222982547      4.27408809233127      8.64067364894841
  C   3.39454444763139      2.93915579800426      7.07607221742893
  C   2.08879548473485      2.41364470693465      7.50112858933275
  N   2.40539618992658      0.86806213459385      4.32596206056269
  N   0.06764897608448      0.18270034829363      4.57116758235890
  C   -0.83358960191346     -0.49492880820565      3.79236583936282
  C   -0.17135249534188     -0.92520391573357      2.56845170107129
  C   -0.61590585060044     -1.64492424837990      1.45551479351104
  H   -1.64517444480483     -1.99196832572864      1.39407067626484
  C   0.30651235409729     -1.89528306717111      0.42899852355712
  H   -0.00913295951235     -2.45065086357519     -0.45291163538080
  C   1.63829443643430     -1.43707915225582      0.51446935080103
  H   2.32728249006709     -1.64810905144619     -0.30188798385977
  C   2.08731548313306     -0.71892584850953      1.63233064646776
  H   3.11256920066799     -0.36236676734298      1.70657566439759
  C   1.17168056299086     -0.47579090826383      2.66004278434756
  C   1.28348026161777      0.22908760241162      3.93000811186205
  N   -2.12456830631027     -0.77883112871150      4.08130563624740
  N   -2.19496153285841      0.38284811818638      6.22878784649070
  C   -3.15402571606564      0.53335378707705      7.21089187160020
  C   -4.37978915633641     -0.16111293130222      6.78572998117099
  C   -5.62253958048333     -0.31333678097843      7.39856159254090
  H   -5.82088475395009      0.13167116354963      8.37115375066414
  C   -6.59755926950950     -1.05925836331521      6.71456712068507
  H   -7.58070191455530     -1.19754354982427      7.16169729768635
  C   -6.32452283443556     -1.63439182310331      5.45932034612016
  H   -7.10107948108330     -2.20809073189076      4.95579560069323
  C   -5.06831662830374     -1.48262003912761      4.84808807398209
  H   -4.84611695069956     -1.92670959629623      3.88026527194843
  C   -4.10531895764836     -0.73802560808966      5.52873885232117
  C   -2.71648462045893     -0.38904167477274      5.19886780966708
  N   -3.06100181496502      1.16625918802678      8.37285144275724
  N   -0.73281147093789      1.85514219831706      8.11734792624865
  C   0.20340891769922      2.47864147639936      8.92440944220060
  C   -0.42364992179996      2.81652383423650     10.19282231719612
  C   0.04954119287903      3.45625208394738     11.34300821741621
  H   1.07920974570044      3.80278536290648     11.40214290274583
  C   -0.84517052270116      3.62867150071796     12.40900389189602
  H   -0.50689202531328      4.12027613942509     13.31989192237535
  C   -2.17761407750205      3.17268484044527     12.32621966591309
  H   -2.84482863286285      3.32165185826202     13.17375398397096
  C   -2.65540607807246      2.53498025618364     11.17130611741914
  H   -3.68162106021905      2.18126237554796     11.09812221513562
  C   -1.76755885068454      2.36954584581013     10.10579636044696
  C   -1.91523538354840      1.75830359130485      8.78890309319972
  N   1.47363376517070      2.79831473021843      8.61084694926477
  H   1.29501517287443     -0.64587635542594      7.47204668562439
