62
Coordinates from ORCA-job CEDVEN-oxo_0_5_tpss_d4_lanl2dz_631gpol_Co3.opt
  Co  -0.23476086944721      0.88283086226566      6.42478856210561
  C   -0.92727398778246      2.57319837345270      5.36113544057642
  H   -1.60812538346396      2.20942996034623      4.58675098128895
  H   -0.04515227925993      3.06012876731871      4.93587413007058
  H   -1.43695979448364      3.20591852544633      6.09275001197533
  O   0.28691556576398     -0.49427583470594      7.23659310284130
  N   1.55747551419942      1.77420577775456      6.40669576215472
  C   2.50083325937255      1.62734941640945      5.43982594695471
  C   3.72413923726267      2.33443916179213      5.84293359137729
  C   4.96347703634392      2.49567479873553      5.22576809684114
  H   5.16434454484871      2.05181544279548      4.25326394885920
  C   5.93479682313483      3.25006392353234      5.90644158064240
  H   6.91438442035086      3.39640375926401      5.45426218738003
  C   5.66502097007998      3.82134314963118      7.16410072325664
  H   6.44020850130345      4.39931495299082      7.66439278741525
  C   4.41443547042294      3.65677828583003      7.78278547925302
  H   4.19623147940494      4.09342096243895      8.75484448818780
  C   3.45294029771723      2.90621158310546      7.10577752243198
  C   2.07141348653308      2.53917569471064      7.43628147228398
  N   2.39421612280039      0.97015197941735      4.26980157644254
  N   0.11066505250411      0.18046696204488      4.58502914885208
  C   -0.77721448345848     -0.51384962795833      3.82819825249849
  C   -0.14542450057444     -0.87859102895423      2.55248282970740
  C   -0.60629230610339     -1.58182698308502      1.44070242632162
  H   -1.61605131877036     -1.98541728688907      1.41568223563981
  C   0.28033788215495     -1.74604415688834      0.36218481648997
  H   -0.04637524503291     -2.29036823132900     -0.52237263497351
  C   1.58455672258951     -1.21853148040196      0.40299151136124
  H   2.24513532257617     -1.36358256796435     -0.45015223203472
  C   2.04525552825807     -0.50902878164922      1.52442571727897
  H   3.05076696633877     -0.09616292653324      1.56551991841183
  C   1.16412077275850     -0.34938836658639      2.59409089033717
  C   1.29530436515772      0.32535859998457      3.88978673014297
  N   -2.04912069825993     -0.83702660771957      4.13116530423870
  N   -2.13701595853370      0.29042840426557      6.29168048551135
  C   -3.07994484191176      0.44099677939443      7.25599064828944
  C   -4.30632879220882     -0.25829927040894      6.84804999317098
  C   -5.54871869781539     -0.41238601934200      7.46084860412919
  H   -5.74954031198531      0.03088317488813      8.43360547454406
  C   -6.52240705896209     -1.16047614076785      6.77657366727817
  H   -7.50407229516781     -1.30159410378906      7.22592894114195
  C   -6.25239281995302     -1.73293851955132      5.51950103214442
  H   -7.02913562340421     -2.30694663641715      5.01706222376794
  C   -4.99865000802490     -1.57636662597842      4.90531577258154
  H   -4.77919960744055     -2.01605177984770      3.93490636665145
  C   -4.03437793868198     -0.83292794131209      5.58632067897722
  C   -2.65109186373643     -0.47121895748062      5.25846426761851
  N   -2.97250775470312      1.10085816291338      8.42498112646305
  N   -0.68504693548200      1.88170078407342      8.10809669850951
  C   0.19911068338396      2.58256517015946      8.86385066935299
  C   -0.43420784018842      2.95310135423577     10.13752255478230
  C   0.02407488046970      3.66483460361213     11.24486821273550
  H   1.03276722792382      4.07121150401267     11.26789955072521
  C   -0.86316827949093      3.83199090470698     12.32253599118195
  H   -0.53856420659359      4.38260070059054     13.20398575600995
  C   -2.16498834440863      3.29871167737388     12.28489631189125
  H   -2.82578627479189      3.44489132808916     13.13769620347948
  C   -2.62256983156312      2.57990623671792     11.16784259549877
  H   -3.62542228338867      2.16026412113658     11.13042357880169
  C   -1.74042426895193      2.41688550354223     10.09976604482991
  C   -1.86999065776441      1.73785902228295      8.80559391626242
  N   1.46807522813515      2.91312950429752      8.56039032705859
