62
Coordinates from ORCA-job CEDVEN-oxo_0_3_tpss_d4_lanl2dz_631gpol_Co3.opt
  Co  -0.25093478415768      0.93875843784244      6.39811224206603
  C   -0.94944472946268      2.58588792032449      5.43104116326606
  H   -1.63662720683880      2.24817695765637      4.65078482437418
  H   -0.08157902040884      3.10073717917352      5.00942022099039
  H   -1.45947484598931      3.19269039001306      6.18488572321358
  O   0.29737206789023     -0.59614524228989      7.03671543848803
  N   1.52094666499677      1.74168179298051      6.42083884323117
  C   2.47617215994609      1.62294869316906      5.43047789067295
  C   3.68283644337787      2.32738597695706      5.83500938692405
  C   4.91764556989486      2.50874368714742      5.20324000051405
  H   5.11041352304063      2.08117354783255      4.22198806173721
  C   5.88304689317606      3.25758212022505      5.88554895578760
  H   6.85790245531616      3.42112477673373      5.42892013627088
  C   5.61923787825349      3.80817642706068      7.16009321662779
  H   6.39602402746981      4.38491451343935      7.65965691228427
  C   4.38222126859193      3.62590019057176      7.78891550263576
  H   4.16914656155078      4.04535995385422      8.76946822091772
  C   3.41963578750294      2.87607717167279      7.10476679290760
  C   2.05766885107428      2.49403787013331      7.44431839556055
  N   2.38472561050963      0.99239827133298      4.26716877881123
  N   0.09275468692826      0.24806611729156      4.60478865516150
  C   -0.79369214751113     -0.48053332198813      3.83998263204880
  C   -0.15443770150211     -0.85704654560101      2.58812371470352
  C   -0.61054376185975     -1.58308261912519      1.48301196711667
  H   -1.61907105735048     -1.98957194999886      1.46047846223441
  C   0.28192425743821     -1.76098088334984      0.41949078501349
  H   -0.03427183157797     -2.32124491882714     -0.45898359121408
  C   1.58953775966241     -1.22713086044908      0.46129492276115
  H   2.25467194175128     -1.38653590574621     -0.38593747864844
  C   2.04259359727833     -0.49971979381623      1.56793850586299
  H   3.04665547995929     -0.08383013987064      1.60982450947424
  C   1.14903253265712     -0.32507354383787      2.62952210299827
  C   1.27374551527382      0.36300977520900      3.90548600252731
  N   -2.04641753254711     -0.81291480129077      4.12465578697658
  N   -2.08012402267736      0.27840538827486      6.30349052963584
  C   -3.04188627355400      0.41537616452189      7.28000751323558
  C   -4.26014056001696     -0.25869481312692      6.85820806913327
  C   -5.50683389932103     -0.41316178212315      7.47318781522830
  H   -5.70132814035558      0.01216876478315      8.45507702632358
  C   -6.48148136297216     -1.13485275026820      6.77462201957080
  H   -7.46492767876674     -1.27909960762933      7.21916938156037
  C   -6.21550260883606     -1.68337712319689      5.49983563345066
  H   -6.99933823560704     -2.23916660025138      4.98766264867009
  C   -4.96705346638512     -1.52631152011865      4.88675909099406
  H   -4.75201062060294     -1.94494945487678      3.90629219590508
  C   -3.99463428624639     -0.80551736165637      5.58778407220731
  C   -2.62011142557114     -0.45320004985702      5.26556338394729
  N   -2.94759793107279      1.04924263094654      8.44218567390808
  N   -0.64116580040416      1.76590981449541      8.10910918301626
  C   0.23591738742946      2.51265417237514      8.86945838400029
  C   -0.41245687704021      2.90989948226477     10.10939076282041
  C   0.03443550883459      3.65848115546557     11.20357116730742
  H   1.04281695463297      4.06528206333393     11.22640321830843
  C   -0.86613479642215      3.85545726931784     12.25641248082537
  H   -0.55675892956184      4.43114653499769     13.12731206802756
  C   -2.17371453016227      3.32042853432494     12.21429569424678
  H   -2.84501569472954      3.49471032905529     13.05368540019000
  C   -2.61807614764072      2.57295499300840     11.11797014030430
  H   -3.62153866610182      2.15568833635606     11.07568197130811
  C   -1.71510095141364      2.37709201730141     10.06764478539581
  C   -1.83144431632335      1.66777125907782      8.80344850353478
  N   1.48449045655361      2.85784090877385      8.58412350264614
