61
Coordinates from ORCA-job CEDVEN_0_1_tpss_d4_lanl2dz_631gpol_Co3.opt
  Co  -0.31348136223747      1.09246606595519      6.30513471098875
  C   -0.98757510498513      2.69438714171293      5.42029238124434
  H   -1.62064727019612      2.35685523106969      4.59540330830014
  H   -0.11287883568025      3.24691715754225      5.06738706504703
  H   -1.55422810280069      3.25146796081473      6.17092460109643
  N   1.48927346219105      1.74280021832648      6.40232363450141
  C   2.46250309140836      1.63076874083863      5.41902541307955
  C   3.67613163844990      2.31497754115424      5.83034442079789
  C   4.91861775443253      2.48049428285869      5.20776227531911
  H   5.11169164944271      2.05417172825613      4.22590871509187
  C   5.88947126435354      3.21410517337564      5.89805524554580
  H   6.86892999901515      3.36757461375799      5.44765709021339
  C   5.62510636723488      3.76320737368535      7.17373552825367
  H   6.40617014206063      4.32864854929182      7.67966640881081
  C   4.38247714771185      3.59379943987475      7.79408289171641
  H   4.16867057695011      4.01162993542216      8.77528574996061
  C   3.41271848693431      2.86152157091429      7.09964977495666
  C   2.04501627903542      2.49642017099887      7.42652089259737
  N   2.37133963480917      1.00756239631439      4.25322577135795
  N   0.07787922169417      0.27303051791538      4.61773480403119
  C   -0.80053252331808     -0.46079304996717      3.83276818169984
  C   -0.15855589470872     -0.85245305818908      2.58976819460613
  C   -0.60782332820506     -1.59537355711631      1.49192868852839
  H   -1.61632977552617     -2.00217761935037      1.46934177557221
  C   0.28997463013283     -1.78713317398942      0.43607078065023
  H   -0.02130734790810     -2.35792359483182     -0.43745364464827
  C   1.59847294811143     -1.25348020548561      0.47889660121432
  H   2.26812822175324     -1.42377961012607     -0.36271793727384
  C   2.04511025872582     -0.51336589799085      1.57894932446186
  H   3.04956503155844     -0.09834572868374      1.62250507292353
  C   1.14373106017864     -0.32161662511833      2.63212371846736
  C   1.25997030982463      0.37858618559837      3.89947520038701
  N   -2.05312929627356     -0.79314101933372      4.11016000200045
  N   -2.05923610858662      0.30268255093742      6.28592382508978
  C   -3.03776827115224      0.43042386791078      7.26074669177590
  C   -4.24891500619466     -0.25994978444035      6.85241907950529
  C   -5.48832145533039     -0.43317582410858      7.47889871919930
  H   -5.68107625018756     -0.00743155039375      8.46105821492694
  C   -6.45755334965019     -1.17110350111454      6.79083835184309
  H   -7.43576442996361     -1.32765980127168      7.24286767514090
  C   -6.19288880423633     -1.72104365697209      5.51563831767022
  H   -6.97252937976087     -2.28996250385637      5.01140171812654
  C   -4.95158258386257     -1.54825165521408      4.89347519943431
  H   -4.73710114403274     -1.96833370048734      3.91338361155719
  C   -3.98518317359717     -0.80741128927536      5.58343923138140
  C   -2.61983003620224     -0.43648934270437      5.25375416898123
  N   -2.95133222086942      1.06849055507867      8.41887325010329
  N   -0.64450766731376      1.77113079564624      8.06891084495335
  C   0.22781003998988      2.51866702248236      8.84723241545166
  C   -0.41107337443170      2.90230585226463     10.09444726853729
  C   0.04247505988227      3.63505350983270     11.19733619176958
  H   1.05195017416502      4.03938033021078     11.22080003375984
  C   -0.85317861481020      3.82207138318591     12.25579954598678
  H   -0.53980265656812      4.38788190161980     13.13181675546947
  C   -2.16220392914343      3.28963369990181     12.21265128111979
  H   -2.83017961048853      3.45612037118285     13.05636300168810
  C   -2.61141822686772      2.55544065948422     11.10969328389262
  H   -3.61570221788270      2.13993502259735     11.06666771386982
  C   -1.71368997352331      2.37266566181102     10.05175793381542
  C   -1.83313396531154      1.68082656401489      8.78009967478900
  N   1.47427684176102      2.86729400618156      8.56326935866205
