63
Coordinates from ORCA-job CAGCAS-OH_1_1_tpss_d4_lanl2dz_631gpol_Mn2.opt
  Mn  -0.36420094562742      7.04192200922295      5.32105847410946
  S   1.14267541631604      4.43406157630125      6.47811386876974
  O   0.83682580400447      5.97772156686370      6.32588279981012
  O   2.44498178509621      4.33844219112137      7.13737757684623
  O   -0.03612186899936      3.76468669505473      7.03331721181802
  O   -1.43583385137106      5.89332858540738      4.42905262557148
  N   -1.58809550819310      8.59213015541408      4.61791602467333
  N   0.87953159069328      8.62869054002507      5.98879969739495
  N   0.98399731957974      7.08000378547458      3.83033470877618
  N   -1.68245497058334      7.09883636883660      6.81799888356698
  C   1.34035127337672      3.88387128694401      4.78889825880384
  C   0.27776829863492      3.24318111228788      4.13281601587473
  H   -0.63933212703596      3.02960387071795      4.68036223056257
  C   0.43898315398502      2.83461914551965      2.80242739358538
  H   -0.38175280446092      2.32857379252273      2.29476770260179
  C   1.65606155020843      3.03211039451271      2.12509939595001
  C   2.71494974412689      3.65359043172018      2.81673864449675
  H   3.67159306231731      3.79298300377975      2.31373584331096
  C   2.56693758230859      4.07933576397997      4.13863717624337
  H   3.39601920709026      4.53423143089026      4.67583224698932
  C   1.84303145889873      2.54379840807702      0.70569469096924
  H   2.31214113616142      1.54893283408428      0.69919950183408
  H   2.49771274709423      3.21343270517296      0.13225337407097
  H   0.88416097019309      2.45845367632457      0.17987165065163
  C   -2.95417587470256      8.21916557496809      5.10808618569343
  H   -3.29728381820469      7.39679111891913      4.46874139899680
  H   -3.64762261114776      9.06783269763416      5.01209954380107
  C   -1.62734402792633      8.73706398323012      3.13766074353066
  H   -1.89341327129758      7.76500529813325      2.71447257834121
  H   -0.64148618604862      9.03572888726286      2.77050525962870
  H   -2.37180731268274      9.49294861972937      2.84616957677875
  C   -1.11966507774425      9.85246816441427      5.27869480931641
  H   -1.52308696057448     10.73272837210855      4.75671741660130
  H   -1.51139260705755      9.85472083660746      6.30260716569344
  C   -2.85517042582718      7.72148563261976      6.52581066632605
  C   -3.88746102149048      7.81567323394525      7.45830890643342
  H   -4.80823847130383      8.33261395291743      7.19736247621254
  C   -3.72207059572899      7.22093503026321      8.71613780300279
  H   -4.51598839154290      7.27544605473499      9.45765177342581
  C   -2.52771734848885      6.54907420273486      8.99600639935949
  H   -2.36464047496506      6.05538469885099      9.95021219447651
  C   -1.52723800184409      6.50770901895240      8.02432028395152
  H   -0.59016905141869      5.98365749291862      8.17116075678882
  C   2.25285577743446      8.25181250104440      5.52350543077264
  H   2.60859458982709      7.46862483615686      6.20359728183719
  H   2.93690570216821      9.11249520531074      5.57476822648402
  C   0.89643504953829      8.80861693888707      7.46699022900807
  H   1.16162079786488      7.84991222265568      7.92045139592611
  H   -0.09645816152911      9.10943920587670      7.81212285963264
  H   1.63191613508289      9.57638769097022      7.75036093449720
  C   0.40263931060120      9.86305227929783      5.29181012159345
  H   0.79215093669364     10.76537726382773      5.78614593647493
  H   0.79398467305372      9.84182757228151      4.26727421796354
  C   2.16023110455768      7.69915078126297      4.12523019227010
  C   3.19238501870325      7.79172576819059      3.18910425661159
  H   4.11589266403752      8.30147766858485      3.45462160837746
  C   3.01722104569262      7.23037601248178      1.91961545324735
  H   3.80873095857573      7.29390854308587      1.17620452740375
  C   1.80664670512967      6.59359838331729      1.62353630747659
  H   1.62604402135723      6.14090678410652      0.65248740377960
  C   0.81644185925213      6.54006417479895      2.60151825841841
  H   -0.14108347745677      6.05768745978375      2.43134566499064
  H   -0.92908320440192      5.11402450687724      4.10662775759430
