67
Coordinates from ORCA-job CAGCAS-CH3OH_1_2_tpss_d4_lanl2dz_631gpol_Mn2.opt
  Mn  -0.84530328368455      7.10948019343225      5.31146446122470
  S   0.08793353079403      4.04557085739457      5.46383189518329
  O   0.12327354129590      5.49616043639767      5.99405730761332
  O   0.15992366075734      3.10754560333756      6.58018288467081
  O   -1.04749967237830      3.89229568186768      4.49737557040114
  O   -2.46621031553380      6.00577171531388      4.74909326318482
  N   -1.72521905980919      8.96535327026474      4.97996459274465
  N   0.91388426854600      8.17381591739225      5.56177598655400
  N   -0.03425778193663      6.82820210618781      3.52208534575215
  N   -1.63894553184091      7.41158149802958      7.09220991656203
  C   1.56298276701309      3.88672963930532      4.47573516540276
  C   1.46327071855263      3.56987798798968      3.11580466864155
  H   0.48270338971382      3.42259711777919      2.67196437461992
  C   2.62918966342316      3.44853033883552      2.35280592956767
  H   2.55166125696579      3.19601514852606      1.29559226466316
  C   3.89836778445005      3.64215411524767      2.92467561223973
  C   3.97392527040072      3.94949668644069      4.29841684737833
  H   4.95011179820845      4.08390091213280      4.76380022767812
  C   2.82071649613756      4.05712500728055      5.07819869405353
  H   2.89303045507055      4.25746704212609      6.14620422274225
  C   5.15623832997653      3.48163909625809      2.10002553092549
  H   5.54584700528068      2.45639075998225      2.18564669729187
  H   5.94905992834618      4.16050659157354      2.43956809671003
  H   4.96666691230361      3.67246533028444      1.03633092684491
  C   -2.92254599822124      9.03808310420734      5.87151084919262
  H   -3.72123182566160      8.47240996388490      5.37257979583336
  H   -3.27232051688254     10.07564234822700      5.99011962470661
  C   -2.14287854462417      9.18890263180129      3.56955162112840
  H   -2.79069728392109      8.36024765921934      3.26752567246446
  H   -1.26090647349139      9.20460665115527      2.92381369113951
  H   -2.68730076417401     10.14070580448448      3.47135153203337
  C   -0.72253700673236      9.99083232591393      5.41678091563043
  H   -0.96776565840166     10.97661253067524      4.99292892673447
  H   -0.78774424447261     10.06648909790740      6.50912961335110
  C   -2.57844822122184      8.39941398647586      7.19177707385247
  C   -3.19496314345369      8.72257038907247      8.39882861048870
  H   -3.93035356654953      9.52388805565240      8.43254845082021
  C   -2.86635673052157      7.99425592060540      9.55110225268596
  H   -3.33811493393485      8.22513465491446     10.50327892639113
  C   -1.92721954046965      6.96109030630091      9.44464969949981
  H   -1.65351090771154      6.35681842846933     10.30597689288723
  C   -1.33371644130853      6.69928477153161      8.21037965835976
  H   -0.61036049327357      5.90203578392963      8.06238366921069
  C   1.93863646274406      7.45423910688473      4.74381401696044
  H   2.20959587957262      6.55094650680961      5.30146407873151
  H   2.84055326860228      8.06992599709380      4.60370876039400
  C   1.37727435668298      8.24355631208749      6.97367786228478
  H   1.44237531553701      7.22238556801345      7.35946289200527
  H   0.65573340075481      8.80811985071533      7.57039898666133
  H   2.36268917868735      8.73059586999433      7.03147009330307
  C   0.66645839653896      9.53675092210122      4.99855149371585
  H   1.43678888099323     10.24678153842903      5.33698135948234
  H   0.73407597048551      9.45804335726774      3.90664533562664
  C   1.30967524138605      7.06439612916044      3.43651869825940
  C   2.01676065135830      6.92884233615918      2.24416484733006
  H   3.08500389429059      7.13132680531130      2.22769767576397
  C   1.34168362182179      6.51173703016193      1.09085721964697
  H   1.87436164593141      6.39348427572526      0.15027733966810
  C   -0.03025587020393      6.24705288634825      1.17818853078878
  H   -0.59819430463460      5.91314761061394      0.31338220715160
  C   -0.67908759352080      6.41513529207897      2.39955247270396
  H   -1.74128863780470      6.21897378923629      2.51455757329945
  C   -3.53445736625385      5.57177999399894      5.63595178806697
  H   -4.19334743362271      4.89948866275781      5.07620315262569
  H   -4.09305421936411      6.45387532866550      5.95438550322349
  H   -3.12102985251567      5.05520071841328      6.50905905602385
  H   -1.97074972449184      5.14063664416191      4.50808109722041
