67
Coordinates from ORCA-job CAGCAS-CH3OH_1_4_tpss_d4_lanl2dz_631gpol_Mn2.opt
  Mn  -0.33759208367802      7.09713916656806      5.48017127092143
  S   0.95537619916728      4.42862383217661      6.51751322214775
  O   0.90652386742500      5.99899854471971      6.46009492992873
  O   2.02476324110479      4.05547301531314      7.44067462369919
  O   -0.40538954724308      3.90484213730937      6.72227080258781
  O   -2.02333882889245      5.71636278878428      4.31455705188675
  N   -1.51728043622891      8.74829440315404      4.81995130995599
  N   1.13469104405522      8.77934623408218      6.04084107480474
  N   0.89762014978692      7.06838636947086      3.90785221967649
  N   -1.62963618052156      7.18629209982453      6.97397828760825
  C   1.46091674150593      3.97991431215593      4.86317737768019
  C   0.57324523350089      3.31374760912254      4.01142014232344
  H   -0.42425957402702      3.06909076889537      4.36660051494986
  C   0.99710556145101      2.94546911726948      2.72805530575232
  H   0.31307091457384      2.40965696049701      2.06988537952288
  C   2.29858305362060      3.23156947493947      2.28401696275298
  C   3.17584269699802      3.90035644038885      3.16248912491663
  H   4.19387744430229      4.11673672507590      2.83932099202959
  C   2.77026986779514      4.26776446086118      4.44514290976781
  H   3.46490992681963      4.74937944986738      5.13016139735932
  C   2.76549755547721      2.81254031775522      0.90766131331674
  H   1.93929084832146      2.41335088613218      0.30706297454384
  H   3.53613361466093      2.03163980356875      0.97716387480073
  H   3.21181596344451      3.65670552034604      0.36256270187613
  C   -2.89014003638827      8.47557254131100      5.36342167309284
  H   -3.34340993463581      7.72928800951993      4.69990599191205
  H   -3.51139523964974      9.38417243069241      5.33764776221057
  C   -1.59627016275974      8.96175434188527      3.35146645353920
  H   -1.95405612464453      8.04280644407486      2.87712233390358
  H   -0.60198709345943      9.18970747598826      2.95947956721033
  H   -2.28565516051974      9.78587925698674      3.11175391480583
  C   -0.94378930247192      9.96052271003050      5.49603486213990
  H   -1.38819427315265     10.86998638279268      5.06193816911981
  H   -1.23875597759830      9.90751807711313      6.55075778478435
  C   -2.76518498917350      7.92231630089180      6.75769648325473
  C   -3.72240122782007      8.11477105856657      7.75172540014137
  H   -4.60518298848303      8.71445655955076      7.53922427442055
  C   -3.53053731274398      7.53321958090394      9.01206563664059
  H   -4.26648120590017      7.66832490779514      9.80096054284240
  C   -2.36588028778596      6.78534185661781      9.23343683987780
  H   -2.16974855308062      6.31654362327767     10.19421977225565
  C   -1.44068575469492      6.63471715199940      8.20459606786356
  H   -0.52628067815265      6.06611680635757      8.32215038052430
  C   2.38576148676050      8.30864259287150      5.40351418351948
  H   2.78518859462911      7.51915304326815      6.05274744147785
  H   3.14116475856979      9.10846702574753      5.32335961367845
  C   1.31252916821678      8.95601062995897      7.49826740132927
  H   1.59327811397360      7.98988171347237      7.92866680030266
  H   0.36426375209975      9.27540358712409      7.94419747465448
  H   2.08670334898351      9.70797535163049      7.72586077013247
  C   0.57990862796524      9.98213511522313      5.38102575903923
  H   0.97541855922100     10.91058511741682      5.82507341918361
  H   0.88481039650406      9.96700003421050      4.32680100356762
  C   2.09462774153817      7.71393497376849      4.04417236895917
  C   3.01167332138251      7.77259177128973      2.99309670921898
  H   3.94788058892847      8.30874776164003      3.13392376024494
  C   2.71981602342273      7.14286533489082      1.77818637229171
  H   3.42548161479586      7.18209865755198      0.95157049242884
  C   1.50717993206982      6.45284968028241      1.65633485742426
  H   1.24431922282116      5.92391109651260      0.74440574970294
  C   0.63177281543384      6.43535509421052      2.73718310913562
  H   -0.29794477077460      5.87762568749988      2.71127176724073
  C   -2.88465556167032      4.81107578746716      5.06989163280004
  H   -3.11222221680477      3.92474073094937      4.46611572666225
  H   -3.81498966893995      5.31913343135698      5.35838708117991
  H   -2.30646365171079      4.52034593835224      5.94725912219485
  H   -2.41892316772011      5.83089388866980      3.42853770828096
