63
Coordinates from ORCA-job CAGCAS-OH_1_5_tpss_d4_lanl2dz_631gpol_Mn2.opt
  Mn  -0.31640008999747      7.00210997882902      5.26809529945965
  S   1.01202236691496      4.34217533734439      6.45672430465222
  O   0.92743920457665      5.90867775399739      6.28114854193974
  O   2.20965706999027      4.05349484402543      7.24215033298954
  O   -0.30927618553527      3.84735885018477      6.87086529783787
  O   -1.36816472333173      5.85114331839780      4.38528779284252
  N   -1.67656052425545      8.66581044381996      4.68831574745173
  N   0.93085654729675      8.62005780525983      5.90053256216471
  N   1.08627334993438      7.23238278541654      3.60800710123259
  N   -1.75248901905188      7.17253085247500      6.95545128204552
  C   1.28633379654818      3.77535614469592      4.78203373308689
  C   0.30846838503987      3.00490718576220      4.13684874637020
  H   -0.59232927330294      2.71758164151009      4.67726124097109
  C   0.53121704906924      2.56350315656148      2.82860615267056
  H   -0.22236219752524      1.94976407942235      2.33607011681042
  C   1.72551066588130      2.87133491304226      2.15174302715084
  C   2.70002131420326      3.63186354792858      2.82698857974923
  H   3.64308597270513      3.85485964090575      2.32873613785060
  C   2.49137871719174      4.08161002911892      4.13311678376725
  H   3.26401660233251      4.64153787701319      4.65594729157126
  C   1.95833353074303      2.38224572356560      0.73878228445436
  H   1.60466625063952      1.35075754772032      0.61449957039056
  H   3.02214868927418      2.41349184274690      0.47433494369722
  H   1.41197300764625      2.99810682481590      0.00825839118628
  C   -3.01605514002715      8.30780457222330      5.22675347789703
  H   -3.40002257450033      7.49974526181919      4.58998344309536
  H   -3.70838592653433      9.16234078831768      5.16231184217379
  C   -1.75201611256908      8.81414821229055      3.21268839140487
  H   -2.03979650148662      7.84736180949656      2.78809489514968
  H   -0.77050414513458      9.09575711780595      2.82085139390782
  H   -2.49026647539436      9.58187293335049      2.93304877185892
  C   -1.12828470357152      9.88589911027396      5.35064822065402
  H   -1.53174243637092     10.79945902690534      4.88645677546195
  H   -1.45145878002054      9.86909040573947      6.39789452594888
  C   -2.91467763862687      7.78775508305670      6.64523894606616
  C   -3.97565657075253      7.85801171759517      7.55176183286509
  H   -4.89389238942725      8.37535970267238      7.28077685200940
  C   -3.83693097426181      7.23683766018959      8.79931988126952
  H   -4.65049028186011      7.27048608765311      9.52091519713087
  C   -2.64568915142927      6.56607499699255      9.10044578985376
  H   -2.50704776292390      6.05568894429215     10.04991025615987
  C   -1.62247896797451      6.55944816102118      8.15072263531690
  H   -0.68131440667636      6.04416481804667      8.31496507434363
  C   2.30480303762107      8.31426028758844      5.38824779126328
  H   2.69019255865047      7.49789693888879      6.01222506070854
  H   2.95926884693519      9.19122879730543      5.50391723976023
  C   0.98788885349134      8.74194535417930      7.38669575715914
  H   1.27163252208544      7.76709793520976      7.79285055002640
  H   0.00259271626083      9.02015317644863      7.76802321842641
  H   1.72530224296153      9.50540342624822      7.67529637741475
  C   0.39545275933109      9.86989267000178      5.26506687627519
  H   0.82662209728085     10.75625412313202      5.75398597469067
  H   0.71819211253199      9.86891102474978      4.21761657453931
  C   2.24311720567652      7.84229425293890      3.95363388068248
  C   3.30835539230935      7.95492388944035      3.05663700043962
  H   4.22573206682706      8.45901905478964      3.35307936898435
  C   3.16714099562064      7.40605849281667      1.77566195880349
  H   3.97887279674746      7.48545377145260      1.05555219165793
  C   1.97692486719772      6.75184675241480      1.43532543235044
  H   1.84051507260510      6.30647150183254      0.45380237105776
  C   0.95762964432448      6.67905994935107      2.38582734785491
  H   0.01555834981429      6.16633226891020      2.20691309030291
  H   -1.22687370571764      4.91896779799860      4.66327847269114
