61
Coordinates from ORCA-job CAGCAS_1_6_tpss_d4_lanl2dz_631gpol_Mn2.opt
  Mn  0.24695631607517      6.78006280936399      5.37108724361511
  S   1.88032501520966      4.54396801563383      6.76691567919218
  O   1.57753447063038      6.07153266625594      6.72327885954250
  O   3.31671735249641      4.29211033209022      6.85094715304702
  O   0.95276843323951      3.89241318662468      7.70352044042154
  N   -1.43358099950755      8.08709125659975      4.39406963179212
  N   0.99924617853933      8.83196972049839      5.89889965565157
  N   1.68355631347305      7.23393655398754      3.77006348111932
  N   -1.50437170806159      6.52583514698873      6.67278893669906
  C   1.35253928995611      4.05780593207779      5.10563617833457
  C   -0.01598990192277      4.10193487357722      4.76711517235540
  H   -0.76082518047423      4.29073794010338      5.54196333191379
  C   -0.42479892045265      3.76634116613383      3.46640832190330
  H   -1.48650992161888      3.77762987803839      3.21799781686901
  C   0.50872120235439      3.34017115823809      2.50135906771102
  C   1.86740994091352      3.28526294919974      2.86992223244420
  H   2.60293253985906      2.94554833597944      2.14092009957631
  C   2.29354197030161      3.65115512499823      4.15274000610729
  H   3.34372327170519      3.60798291984252      4.43240242122219
  C   0.05899249544416      2.90471561350535      1.12373313102071
  H   -0.88207085092209      3.38928862427930      0.83476505960414
  H   -0.10995219729126      1.81820695717514      1.10060400771374
  H   0.81619515449924      3.13204848733880      0.36267612791361
  C   -2.73252652103372      7.50074367539935      4.81761226633231
  H   -2.90847459426366      6.61875143023610      4.18434317291839
  H   -3.56837066810595      8.19952983169799      4.64840319086340
  C   -1.36828509404997      8.16207125821593      2.91462664983210
  H   -1.42311039958868      7.14741010135858      2.50321818494949
  H   -0.41553583194688      8.60628319927694      2.61362787448290
  H   -2.19473653539401      8.76512713311387      2.50389107945380
  C   -1.24173945911257      9.43334879112412      5.01308139808216
  H   -1.80468455858632     10.19848034514732      4.45321938392019
  H   -1.66015629069580      9.39152429185190      6.02650990152345
  C   -2.68236154147938      7.06290637703177      6.26803458245771
  C   -3.78165231002120      7.15212654692718      7.12412884504888
  H   -4.71075235460972      7.59793495129491      6.77482150569023
  C   -3.66610867906266      6.65104741439207      8.42835546653758
  H   -4.51077362039708      6.70559215980960      9.11203072640625
  C   -2.45487969061050      6.08216743897736      8.83601995422950
  H   -2.32809627075774      5.67424994673421      9.83541341187501
  C   -1.38941785104618      6.04191725919361      7.93301425546602
  H   -0.42784693232853      5.59865361992441      8.18499532421344
  C   2.43366487963566      8.76884377787804      5.51662840477289
  H   2.92359789856110      8.11326669247452      6.24975100788466
  H   2.91025973622590      9.76176096054945      5.56179400341446
  C   0.86700711636967      9.09583528798116      7.35490859828952
  H   1.34908650014273      8.27667832260807      7.89718864911507
  H   -0.19419325378275      9.11950304956171      7.62411924638546
  H   1.33066402959615     10.05698705071916      7.62889219483341
  C   0.24125553702159      9.81376481677242      5.07635176989466
  H   0.34852301268864     10.83281891405811      5.48196494840623
  H   0.67441387755664      9.81153248585001      4.06879201110995
  C   2.60570278051635      8.15899031432214      4.13971978817324
  C   3.67975697041283      8.49342388295438      3.30926851238245
  H   4.39647381837354      9.24730585700054      3.62770993418767
  C   3.81728143944568      7.84473094627053      2.07687078514436
  H   4.64828380596521      8.08848534411749      1.41837456453308
  C   2.86871003842396      6.88542713365218      1.70302329415522
  H   2.93728300114437      6.35963280353537      0.75421080895367
  C   1.81686039882394      6.61372739964077      2.57759067317067
  H   1.05151735152352      5.87966953981532      2.34097957514006
