61
Coordinates from ORCA-job CAGCAS_1_2_tpss_d4_lanl2dz_631gpol_Mn2.opt
  Mn  0.34659741846964      6.88267024827724      5.34144406538717
  S   1.80389413888425      4.71703062302496      6.68146981258219
  O   1.65144455772621      6.27792054665252      6.66662903589648
  O   3.21684828739022      4.34798464328472      6.68933230380314
  O   0.87739661808300      4.12082387334109      7.65142306655715
  N   -1.18896022840093      7.79221613671631      4.24985680760334
  N   0.84369005840603      8.79651081876582      5.93156624161883
  N   1.80748218343663      7.26839659791001      4.04413121362226
  N   -1.17845970262086      6.62656853079844      6.61398825230994
  C   1.15394706274464      4.32895346573590      5.04121987221548
  C   -0.23091958130920      4.39177939506370      4.77328361788003
  H   -0.93249982495662      4.54573021304894      5.58853514211376
  C   -0.70126304855335      4.02195208533057      3.49500689270017
  H   -1.77389564008182      4.03233412260915      3.29775514701634
  C   0.16684903706956      3.53480122976695      2.50738516021931
  C   1.54161981573490      3.42455521067149      2.82526440146913
  H   2.22654006173626      3.00956235596791      2.08598770877197
  C   2.03668680135277      3.83136825308385      4.06299846435541
  H   3.09301837035649      3.74586594179844      4.30621893383138
  C   -0.35021499882645      3.07865249202307      1.16126063650899
  H   -1.42158496221699      3.28444449078819      1.05193011085406
  H   -0.19957907444138      1.99746741519515      1.03446652702080
  H   0.18174465416131      3.57659794650884      0.33860250978114
  C   -2.44812334607966      7.07272688941901      4.62330499225338
  H   -2.43988689764433      6.12142321522979      4.07528809709669
  H   -3.33913845096815      7.63907402787610      4.30982992453884
  C   -1.03655623563937      7.76441677797581      2.77042334314942
  H   -0.91162430267328      6.72374537945904      2.45380931061519
  H   -0.15026924733723      8.33619144996963      2.48321599430255
  H   -1.92418409969880      8.19406473790203      2.28150753378096
  C   -1.25685205371780      9.20868606440345      4.74800088726535
  H   -1.80495538111089      9.84259801928816      4.03496349917588
  H   -1.81525011266025      9.19747654249490      5.69151258635429
  C   -2.43222499985397      6.82072802257616      6.10543650472399
  C   -3.57721909284209      6.75451195236278      6.89677521660795
  H   -4.55363321505872      6.92761549881595      6.44923660878542
  C   -3.44707677589567      6.45452452477391      8.25958652455935
  H   -4.32613014523105      6.38958852578291      8.89652827420203
  C   -2.16570695344300      6.23937059449070      8.77843170702248
  H   -2.01366985815186      5.99226487000252      9.82578353347243
  C   -1.05811333618764      6.33770689621152      7.93689183486041
  H   -0.04751385618368      6.16183189041248      8.28590159323926
  C   2.33439738575116      8.86078168144522      5.76603282272873
  H   2.76140218070547      8.27145994410132      6.58539062091932
  H   2.69411403251839      9.89860928566658      5.83583666415553
  C   0.51076976134966      9.12792699105237      7.34472229323745
  H   0.95765607015042      8.36444481885035      7.98663746862066
  H   -0.57389750224091      9.12542236433830      7.47918137939289
  H   0.91110312589510     10.11878404198287      7.60651666435084
  C   0.15561726381094      9.72429491417711      4.97990404497897
  H   0.14306733638519     10.75155134338512      5.37500755630871
  H   0.72464423490949      9.72732461729441      4.04246071782062
  C   2.68533276614660      8.23077981798989      4.44830092933136
  C   3.79634699229416      8.58659297369161      3.68387977691529
  H   4.47440707996939      9.35666801069403      4.04480129461759
  C   4.01845667612586      7.94571792376470      2.45926924993642
  H   4.88232097208820      8.20260797968391      1.85067233802258
  C   3.10025130229312      6.98010619874938      2.02972568725328
  H   3.22219421779259      6.46479486913059      1.08045697842178
  C   2.01529494554236      6.66915664572674      2.84630023707126
  H   1.28396751474589      5.92024306246414      2.56201938579145
