61
Coordinates from ORCA-job CAGCAS_1_4_tpss_d4_lanl2dz_631gpol_Mn2.opt
  Mn  0.20574821917389      6.93809787553006      5.38329018530916
  S   1.81386036577497      4.64730127896911      6.62635485479807
  O   1.46379161117519      6.19113764721864      6.59975891152881
  O   3.26440762496542      4.48784079282313      6.67725828630847
  O   0.94790917354154      3.99226906623584      7.61127077760723
  N   -1.25516349861642      8.01232900968541      4.32538340805954
  N   0.93692564716765      8.96479063743841      6.03819765883107
  N   1.64894850985662      7.27338642249086      4.04059548869668
  N   -1.32021688528487      6.63838633313855      6.59216746827483
  C   1.26129075306928      4.11997240990660      4.99754179604363
  C   -0.11193846427141      4.12617852012885      4.68882391270018
  H   -0.84221991902063      4.35452307896961      5.46388116191391
  C   -0.53217768814019      3.73236317281232      3.40982306573602
  H   -1.59727350109032      3.71326104591135      3.17718175312910
  C   0.39279296999741      3.28692952034611      2.44439089947844
  C   1.75698098682046      3.25355115209528      2.79411205146782
  H   2.48498024813418      2.88484874818103      2.07186366921321
  C   2.19602173375004      3.67662717768922      4.05480979945699
  H   3.24983015037627      3.65419542124567      4.32233066856339
  C   -0.06507672388550      2.83382627190945      1.07505911716429
  H   -1.15601312195128      2.73411311829305      1.02995488339272
  H   0.37806630973473      1.86415573378747      0.81397971337592
  H   0.24060777687055      3.54916656420713      0.29693389134074
  C   -2.54825112150118      7.30872299116181      4.63968552889046
  H   -2.56300012547319      6.40160725881352      4.01759651256556
  H   -3.41102523566055      7.93063884711024      4.35759391824684
  C   -1.11089568630867      8.12128943672183      2.84757539203815
  H   -1.07994048004570      7.11501653225514      2.41733640186171
  H   -0.18109933955682      8.64134706831519      2.60458361957715
  H   -1.96236438345469      8.67296985298265      2.42172199760312
  C   -1.23953117817259      9.37802368811382      4.96045967547685
  H   -1.82799663636824     10.07455617696024      4.34359396231336
  H   -1.73234717407343      9.28606340236500      5.93584365943806
  C   -2.56170661664955      6.94483662744604      6.09785945567508
  C   -3.70910530876946      6.88719350866736      6.88402099954185
  H   -4.67200683311261      7.15136295275914      6.45185729752091
  C   -3.60237837590044      6.47829999608816      8.22081004115257
  H   -4.48545002715384      6.41879549149385      8.85217680706981
  C   -2.33541643530839      6.14812785212983      8.72059450366225
  H   -2.20327225363594      5.81543692417276      9.74684056896456
  C   -1.21924597300599      6.24149468099479      7.89344883335558
  H   -0.22059067091245      5.98010938816580      8.22545894042321
  C   2.38392261051630      8.89148090270468      5.71459818343755
  H   2.84868997690484      8.27955465163489      6.49872511366592
  H   2.86369046239589      9.88425648046198      5.71674476759694
  C   0.72820846955392      9.26775858683416      7.47072471743467
  H   1.17810311609478      8.46250761531537      8.06017842032256
  H   -0.34575127731920      9.29871150408057      7.68339951838617
  H   1.17994102156795     10.23329534859783      7.75146710555454
  C   0.19422378556835      9.88344281533002      5.13963484171442
  H   0.18011549701249     10.91209326458277      5.53482450376300
  H   0.71083679456922      9.90826067853736      4.17194789034364
  C   2.58476521427141      8.20496741842964      4.38226128435528
  C   3.67393479168619      8.47585213996977      3.55105913613796
  H   4.40142932635414      9.22724789900703      3.84985581121425
  C   3.81358569218258      7.77810426768181      2.34595735779718
  H   4.65810969567028      7.97611546818875      1.68988846972214
  C   2.84678573925131      6.82454614549589      2.00042893314037
  H   2.91596993625655      6.25360353143334      1.07830974153896
  C   1.78633697011257      6.59793393807617      2.87305175897461
  H   1.02034375426654      5.85512366790688      2.66622090713207
