63
Coordinates from ORCA-job CAGCAS-OH_1_3_tpss_d4_lanl2dz_631gpol_Mn2.opt
  Mn  -0.50064986355442      7.10529799301739      5.29715554849271
  S   0.51074640000415      4.31436571364764      6.18874618988865
  O   0.71391988815057      5.86947216279450      6.17656222835248
  O   1.33339417335396      3.76628841858962      7.26354143389043
  O   -0.93736355150690      3.99763245784032      6.16226978094773
  O   -1.66775790401581      6.01769034499599      4.48334330472479
  N   -1.70362067076847      8.69077293643692      4.73283920403343
  N   0.88826713553599      8.60324935991608      5.88118781177698
  N   0.72971144224305      7.05145703819870      3.73871246888773
  N   -1.65361310169837      7.19736041038688      6.92769954043174
  C   1.18348811740511      3.82557706657896      4.61010633065477
  C   0.36257957283113      3.21072653512525      3.65782568622078
  H   -0.68262701427933      3.02171645055342      3.88890043393292
  C   0.90694191653869      2.83508781393351      2.42376287970911
  H   0.27121882493930      2.34681125088709      1.68568240066164
  C   2.26083234109495      3.06376704320755      2.12709711616036
  C   3.06719115122044      3.68270471037557      3.10449844213336
  H   4.12220006768062      3.85825006200830      2.89518327311761
  C   2.54166984939652      4.05886669089340      4.34020975427575
  H   3.17795904686214      4.51283029267212      5.09722887607052
  C   2.85482833273071      2.63220511037188      0.80470919564307
  H   2.07469299473122      2.38508434124696      0.07463631313898
  H   3.48368193893217      1.73936322545020      0.93420970778758
  H   3.49456783524804      3.41689844017720      0.37750027839597
  C   -3.03712154489552      8.37965253920194      5.34367382367959
  H   -3.47449710451058      7.58615184224246      4.72555137253432
  H   -3.69515677965479      9.26143254985931      5.32685876571734
  C   -1.85602461291718      8.83342432261055      3.25878699044154
  H   -2.17188562230816      7.86629104036879      2.85835801758443
  H   -0.89504355975936      9.11159070317917      2.81759589259043
  H   -2.60554295247400      9.60384655990712      3.02388250199258
  C   -1.11256660297958      9.92258824664585      5.34899230969765
  H   -1.51653217734972     10.82494005470201      4.86726829818491
  H   -1.40775205407359      9.93794872806262      6.40489380585864
  C   -2.83157262017898      7.85163489872621      6.73947196161796
  C   -3.77942260385497      7.95798908989707      7.75793049053406
  H   -4.70859072765369      8.49450337174658      7.57954930439795
  C   -3.51685281771437      7.35536802691003      8.99440726015041
  H   -4.24435975327325      7.41870934332080      9.80056807705291
  C   -2.30876828538281      6.67190538672067      9.17586157941647
  H   -2.07057685444838      6.18233133612775     10.11623639791156
  C   -1.39827503648528      6.61443762092815      8.12160647583350
  H   -0.44643405793104      6.09972096301434      8.19997153600177
  C   2.19366380617427      8.16745138924905      5.29391624616930
  H   2.57273432193531      7.36826684423127      5.94205799473493
  H   2.91701706232107      8.99675342555429      5.28792270002187
  C   1.04437676833325      8.77511250781007      7.35121228080057
  H   1.30049159308741      7.80224334969320      7.77999995101154
  H   0.10272688981439      9.12422334668823      7.78386660151748
  H   1.83954299306101      9.50326295588397      7.57019733316013
  C   0.40415904917330      9.85730930492242      5.22330205527100
  H   0.88105094302998     10.74112066538017      5.67271686330316
  H   0.69875981628514      9.80913207853946      4.16813223409428
  C   1.95757265271977      7.60753413616414      3.91541166504613
  C   2.92399747244099      7.58366224852278      2.90992142169143
  H   3.89041699589738      8.05358651943501      3.07876858536816
  C   2.63477140666820      6.93432768103992      1.70427491675737
  H   3.37577871431743      6.89689869227493      0.90890797328001
  C   1.38318016161001      6.32839349300022      1.54542022853610
  H   1.12454100084417      5.79484499322310      0.63525715063899
  C   0.45347062941567      6.40830880459847      2.58034700255706
  H   -0.53129786412306      5.95243920640492      2.53951417130668
  H   -1.69420756823595      5.17062586390592      5.01000956420551
