64
Coordinates from ORCA-job BOJLUI_1_3_tpss_d4_lanl2dz_631gpol_Fe2.opt
  Fe  4.40434119965953     -0.03700848219273      8.02505504202696
  N   0.80236528203258      1.47584315728242      7.22485893474338
  N   2.16033422367505      1.87483154222986      8.94178794562094
  N   -0.19343895410883      1.59417153933702      6.22631976548286
  N   5.19991964408359      1.38234074297039      6.66678335892297
  N   3.44123057625916     -0.95196237669334      6.55216436499235
  N   -1.08100366679867      3.35935134179283      8.28194877719533
  C   0.18439561193043      3.37370343382462      8.76501996256473
  C   1.03912595246938      2.26688601391257      8.33803401661048
  N   2.66419484776047      0.85121527168166      8.19618952277568
  C   1.84190807542699      0.60505582218677      7.16508295667024
  C   2.21576931834242     -0.41998471230741      6.22530734947346
  C   4.58220466564955      2.40190562026527      6.64376006777662
  C   0.69037904228606      4.37663088840726      9.60719776859184
  C   3.25373438567680     -2.39701163120981      4.63941269478339
  C   3.94234221881504     -1.92459186512590      5.75985501138979
  C   3.78792914881989      3.54098479455787      6.67909323626575
  C   2.65963496476929      3.59121262988422      5.82619342020827
  C   1.47601832853364     -0.83874777801991      5.11613900849066
  C   3.92551488933383      4.43250526416406      7.77573271792216
  C   -1.89109685106183      4.36567489607097      8.64931284903412
  N   4.03115259668091      5.11242341542611      8.73199342164329
  N   1.70462633689583      3.57442460713037      5.13440665682745
  C   2.00716472971122     -1.85018833935297      4.31133051410535
  C   -0.17197920912950      5.41229879938499      9.97666223945746
  C   -1.48681407785834      5.40709409339407      9.49577548220067
  H   3.70116626940464     -3.18102435838710      4.03415000716292
  H   0.51822576909590     -0.36741562521039      4.91371671117893
  H   4.91137267632308     -2.31870272267241      6.05349612072153
  H   1.45858465491598     -2.20062087208506      3.44022370845498
  H   -2.90228066863521      4.33145098386386      8.24646925262564
  H   -2.18600867843862      6.19720122993249      9.75911534595974
  H   1.72887211674184      4.35612118230623      9.92516209850192
  H   0.18186010088985      6.21476734462788     10.62018290609735
  H   -0.97781835570798      2.05101715978872      6.72062338689947
  H   0.19850616381576      2.29354781754054      5.56375166828496
  N   7.92067741323886     -1.65343520204078      9.05848401015351
  N   6.40279305925184     -2.35676733743587      7.59376917084159
  N   9.08846844022042     -1.51253063983806      9.84996075570873
  N   5.36900309409512      0.92095949200109      9.47368767669199
  N   9.73770437923769     -3.68759698801311      8.18155508682720
  C   8.45964670327383     -3.74182002771557      7.73571759873015
  C   7.59556678936869     -2.62509342243452      8.12096961080061
  N   5.95384129895675     -1.21941685877157      8.19842992839951
  C   6.87677749139827     -0.78088402157364      9.06767832789033
  C   6.62369963794818      0.44762923937791      9.77664566909448
  C   7.96384369946448     -4.78100429812472      6.93136851366669
  C   5.82983304723977      2.84626851321837     10.84114276062803
  C   4.98837826597471      2.09986234564247     10.01050681552480
  C   7.51130714702759      1.13227590313467     10.61113691340646
  C   10.56376680455510     -4.68639058684581      7.82621754948653
  C   7.10515826443939      2.35993167739014     11.14585235648804
  C   8.83925321494132     -5.80812910393490      6.57158423674266
  C   10.16392982694402     -5.76324337666440      7.02481653164729
  H   5.47784911651020      3.80304990399131     11.21611811306875
  H   8.49815172762382      0.71697848509435     10.79380302740065
  H   3.98689900741827      2.43708511652116      9.76132632479923
  H   7.78035463376519      2.92835663639379     11.78114869142863
  H   11.58424056647722     -4.61243980918444      8.19854025945816
  H   10.87477766797351     -6.54401488301971      6.76584815148121
  H   6.92632598470968     -4.77055128845887      6.60870676601172
  H   8.49359330828074     -6.63097939095165      5.94962533158615
  H   9.78470109335884     -2.10408002501501      9.36003429249673
  H   8.88852498804571     -1.97882088144877     10.74451723787470
