66
Coordinates from ORCA-job BOJLUI-OH_1_2_tpss_d4_lanl2dz_631gpol_Fe2.opt
  Fe  4.04544846682940     -0.23494656538799      8.58433650387787
  N   0.84086925122170      1.82893394574141      7.38517508590099
  N   2.01995410964675      1.97451745417222      9.26596214919561
  N   -0.05497847281091      2.05708073262864      6.31799047265859
  N   5.02062154283642      1.21958461943692      7.55460510012149
  N   3.22688156839189     -0.87285109139094      6.86754225111411
  N   -0.85030062846951      3.97885202633027      8.23779147254589
  C   0.23136194278865      3.67939997947972      8.99486195029870
  C   1.02228289117878      2.52663595123641      8.56620392500472
  N   2.48296185627089      0.94039100381465      8.52736646224105
  C   1.76462614262947      0.83224821303116      7.40414226086744
  C   2.10108813265980     -0.20847179793882      6.46656076446381
  C   4.83785209720191      1.40995520348507      6.39043137095698
  C   0.60321556225440      4.41350264951877     10.13385622549587
  C   3.05757597815916     -2.24189681258301      4.90497972509033
  C   3.68919031559596     -1.87430516935424      6.09730929817922
  C   4.51923926456091      1.63182625871934      5.06790268906943
  C   3.31807485674215      2.34871944772338      4.83339388648541
  C   1.41033048396313     -0.52636503146399      5.29380976673111
  C   5.22763017667816      0.95697868832928      4.03597630115305
  C   -1.59531593708725      5.03541351241642      8.60398531991987
  N   5.81151660074843      0.35615635143102      3.21120550128900
  N   2.28726477370811      2.90644320808751      4.71742726362410
  C   1.90310826244542     -1.56458772512091      4.49985863492349
  C   -0.18697391446813      5.50433396439037     10.50047005769763
  C   -1.30777469259324      5.82527838575957      9.72388477627505
  H   3.47923018659670     -3.04512134716708      4.30711628880788
  H   0.52016310903590      0.03705453099394      5.03123719957302
  H   4.59544809424918     -2.35960519887883      6.44432173330446
  H   1.39612084111665     -1.83445120180077      3.57656152180297
  H   -2.45596795448153      5.24884679243895      7.97202096243047
  H   -1.94635006391455      6.66819004167803      9.97645248095965
  H   1.48623186586975      4.12826716170318     10.69902105754092
  H   0.06852677241312      6.09751766814579     11.37600841738992
  H   -0.72622764216117      2.74554057085529      6.69846694619733
  H   0.51727827801417      2.51210416401168      5.58097161699517
  N   7.80425743731950     -1.45896902746655      9.17582948865086
  N   6.33110629501233     -2.04700908443442      7.61991317515449
  N   8.97839812544424     -1.30560149095122      9.95730442671816
  O   3.12353186678465     -1.51171147217680      9.44249536668145
  N   4.89424906694429      0.46064372899247     10.24642540359483
  N   9.88866866857233     -2.81136535211615      7.75765994954318
  C   8.61694726481863     -2.97295556705827      7.31910556291757
  C   7.59252361268901     -2.20163352251305      8.02366257976533
  N   5.73537081127101     -1.21056492278958      8.50855004406194
  C   6.62396825283838     -0.83102238284682      9.43393094461538
  C   6.20112929987712      0.10298016593520     10.44767377772089
  C   8.26934656551145     -3.79544541688283      6.23519558697012
  C   5.01182154367481      1.81680317200852     12.22165692655701
  C   4.31216750423247      1.29507491029243     11.12762573514438
  C   6.96701273609488      0.59889311299054     11.50685259230445
  C   10.85843112265194     -3.48173032696934      7.11267193885602
  C   6.35631354408188      1.47772570079482     12.40684482968897
  C   9.29267475698690     -4.48189435279227      5.57776508925740
  C   10.61162204057247     -4.32580556328770      6.02241891889610
  H   4.50031814303307      2.48648471780803     12.90792820277737
  H   8.00895236486975      0.30620334119266     11.59592197985031
  H   3.28024720957866      1.56152049215503     10.91702831733403
  H   6.92295725789982      1.88675303057002     13.24013122961795
  H   11.86963516492851     -3.32848348273921      7.48608284202488
  H   11.43492898222214     -4.84262957128271      5.53558492199909
  H   7.23135391186751     -3.87849187600704      5.92560161118189
  H   9.06495196024387     -5.12624217578927      4.73153330030628
  H   9.73664007813978     -1.58040802811041      9.30568562732258
  H   8.94291532784539     -2.04427196922792     10.67242227847429
  H   3.72100496617218     -1.96745737177062     10.07536991182950
