64
Coordinates from ORCA-job BOJLUI_1_1_tpss_d4_lanl2dz_631gpol_Fe2.opt
  Fe  4.21649658669727      0.01570254312302      8.43000979733408
  N   0.80784364530650      1.81237349749358      7.41954452594596
  N   2.06716165381779      2.06135796908499      9.23591225840509
  N   -0.14496796980624      1.98022553730096      6.39104011492689
  N   5.09706148718743      1.45219899332122      7.36556208879668
  N   3.31509565014468     -0.76639822159290      6.81872835200857
  N   -0.96130286704915      3.87884718744185      8.32449235855598
  C   0.17001528551339      3.65119891916867      9.03246738835662
  C   1.00662592972968      2.54010011989421      8.58001005254248
  N   2.56247642539613      1.03668627682099      8.48961838627757
  C   1.78848510922052      0.87186712077772      7.40373013830943
  C   2.13613625125211     -0.15861271950438      6.45848586644967
  C   4.79620630337681      1.61335871473819      6.21982333905987
  C   0.55136618613090      4.41962129207378     10.14544446432710
  C   3.14846798598171     -2.11026369139792      4.82680508203381
  C   3.80191973036604     -1.72565558573861      6.00116551854018
  C   4.35218110028346      1.79893180179245      4.92713225979217
  C   3.11821834977784      2.48169590771188      4.78021170023578
  C   1.42128780367633     -0.50135527720250      5.30804265679451
  C   4.95946256725049      1.09442802501667      3.85129775104694
  C   -1.74739778190649      4.89642811069272      8.71435363819444
  N   5.45722799595515      0.46867107465203      2.98922194617064
  N   2.06794038917238      3.01326966998044      4.73318959302770
  C   1.94070727115844     -1.49824209370535      4.47750459095567
  C   -0.28193425107049      5.46847646776388     10.53793443527396
  C   -1.45377366187270      5.71575879969659      9.81134898038859
  H   3.59840570126658     -2.87082041633506      4.19481463326624
  H   0.49429288005079      0.01771706314069      5.08388571900274
  H   4.75224462729970     -2.15830506333324      6.29897670502244
  H   1.41678959146748     -1.77977088806446      3.56729089439834
  H   -2.64725541156027      5.05271519608544      8.12147946637627
  H   -2.12686437204969      6.52465436577038     10.08464676983493
  H   1.47438431415272      4.19235851847448     10.67154324010217
  H   -0.02042719109993      6.08623624829072     11.39447826887080
  H   -0.83503236367287      2.63581715349058      6.79575476362889
  H   0.37143478277210      2.46392048337401      5.63001989367071
  N   7.79821833533905     -1.55686391242182      9.24397159064863
  N   6.42145615112474     -1.93722470775234      7.54316214698265
  N   8.90856747974068     -1.55447179195457     10.12678033019322
  N   5.03270560446108      0.65523072807672     10.13417864105863
  N   9.84529005093319     -3.10561407060639      7.97365722336261
  C   8.61306163022103     -3.09734775379861      7.41020606157165
  C   7.61635631592302     -2.23885330105732      8.05069252996353
  N   5.83036756392246     -1.06505645777673      8.40890555020878
  C   6.67160481417891     -0.81273101410401      9.42246077386974
  C   6.27817837552291      0.14965146921917     10.42079749966689
  C   8.28477267458571     -3.83230298468904      6.25893080008940
  C   5.21427828750684      2.03098993138150     12.10207029164099
  C   4.52155111423605      1.58180906500624     10.97272826312877
  C   7.03286612153892      0.56061440256828     11.52299629555384
  C   10.79129293509000     -3.86274529685642      7.39231215812319
  C   6.48757507593578      1.52288416758917     12.37875589709948
  C   9.28281173522944     -4.61062853620510      5.66908037314556
  C   10.56005149797753     -4.63022657071007      6.24395421237916
  H   4.75395807825685      2.77750871894546     12.74403614966226
  H   8.02421718792488      0.14442306666131     11.67602307335618
  H   3.54165301536173      1.96787392353857     10.70323986872935
  H   7.05059212895270      1.86884390228275     13.24247937068929
  H   11.77068048085826     -3.84495717258232      7.86776937963321
  H   11.36301968449056     -5.22299825396874      5.81295347637673
  H   7.28073195434500     -3.77893691462938      5.84756448888380
  H   9.06835604953239     -5.19088782291900      4.77430543562261
  H   9.68115059650889     -1.92298378159080      9.54119562476970
  H   8.71515532598408     -2.27959213194432     10.83032485566497
