29
Coordinates from ORCA-job BEGQEM-OH_0_3_tpss_d4_lanl2dz_631gpol_Fe3.opt
  Fe  4.47994256364888      4.34769628805662      7.32455414354384
  Cl  5.18158922384611      4.89386777617959      5.21825442932271
  Cl  6.52310168894125      4.54333853092673      8.29839898336867
  O   3.72945498278139      3.72687082121731      8.83306233510443
  O   4.21460201827334      6.13409792906396      7.73655635484310
  O   3.08065668334142      7.99700484481377      8.10397520547384
  N   4.76241918051893      2.40834553798542      6.75113289550356
  N   2.65678927533768      3.97842211605758      6.55322125516551
  H   2.22312364542238      3.59846577694557      7.40672217724125
  C   3.07828146708419      6.82571111847749      7.73427644420842
  C   5.76763634819033      1.61147120880793      7.16168821956042
  H   6.51154479834791      2.09079220724691      7.79259318029521
  C   3.78428836470866      1.90980188216180      5.95757077743965
  C   4.82663648003208     -0.25944492560329      5.97021997937974
  H   4.84886558963913     -1.30413048485651      5.66654811304231
  C   1.91636527093622      5.19071246495594      6.11894768247941
  H   0.92760235159496      4.88988195414217      5.73776572754427
  H   2.49313410880998      5.63921705965562      5.30140769111213
  C   3.78240326379263      0.57342306779591      5.55409840018543
  H   2.97828521033901      0.19958200291318      4.92398325029558
  C   2.74852463189459      2.91342411692738      5.52170687063601
  H   3.07976275057765      3.39737030626361      4.59332429910108
  H   1.76668862102126      2.44749715412720      5.35665151764576
  C   1.77452702558351      6.14717126951034      7.30180792662181
  H   1.36446077008951      5.60525964530040      8.16922631005384
  H   1.06522216915756      6.94377964645175      7.05301600705822
  C   5.83405976879447      0.26913043950919      6.78357037862065
  H   6.66245006347826     -0.34379428530424      7.12915188789316
  H   4.26632168381663      4.11419453027059      9.56108755725985
