28
Coordinates from ORCA-job BEGQEM-oxo_0_4_tpss_d4_lanl2dz_631gpol_Fe3.opt
  Fe  4.55397199762367      4.39385765172844      7.26118119400276
  Cl  5.23191176557690      4.79578381618533      5.03605519569895
  Cl  6.68067034585996      4.54720924279424      7.95852908034257
  O   3.93002648472821      4.00374357733378      8.74666178089359
  O   4.19285295967971      6.17018379244042      7.36794421827136
  O   3.10503683435261      7.77192778032489      8.48639633740696
  N   4.74964485231185      2.41252777663108      6.76818440251240
  N   2.69566337207002      3.97564168645190      6.52542951356512
  H   2.28689003109630      3.56625389463657      7.37585979556439
  C   3.07101918097454      6.73916524072391      7.83761964856771
  C   5.71575836469473      1.59804711671043      7.23724870268696
  H   6.43596341840543      2.05820137709336      7.90693613141670
  C   3.79897903419558      1.92294221184670      5.93362553701370
  C   4.81138741714309     -0.26055483804536      5.99802343387493
  H   4.83563356055328     -1.30522455835373      5.69446384581566
  C   1.92801205551024      5.19392377107004      6.15015159889720
  H   0.94901989009899      4.88583508728690      5.75070884654476
  H   2.50032629975913      5.69587654458992      5.36088383980123
  C   3.80022460341082      0.58653292474831      5.53285170350293
  H   3.02037209033122      0.22409487038779      4.86668708271056
  C   2.78389414095452      2.93376218374954      5.47326279161745
  H   3.14019035465230      3.42278201303880      4.55745091891160
  H   1.79774976683312      2.48023555086526      5.29685887503764
  C   1.76204608116936      6.08389803354550      7.38358938407884
  H   1.34979299095877      5.50713784638405      8.22604476072664
  H   1.05228893785661      6.89235986957326      7.17242067085910
  C   5.77930709405593      0.25408741525646      6.86520029044021
  H   6.57846607514300     -0.36883187899785      7.25843041923789
