29
Coordinates from ORCA-job BEGQEM-OH_0_1_tpss_d4_lanl2dz_631gpol_Fe3.opt
  Fe  4.48202376653880      4.39130952288846      7.26649684532830
  Cl  5.31114008783435      4.75722811629266      5.13575136622566
  Cl  6.51667170376636      4.52777062613064      8.26946752956289
  O   3.74529747668285      3.91064640169714      8.82999531923439
  O   4.17501354660307      6.16817260457464      7.41413267951989
  O   3.04773849698724      7.75097388494239      8.51323119509616
  N   4.74126850131223      2.42956982785891      6.76809509673537
  N   2.65986459072197      3.98687550537816      6.55593840049375
  H   2.22002936193579      3.61279370872397      7.40946678451116
  C   3.03337511821724      6.74910393387495      7.81365702494874
  C   5.74994828542825      1.63640198767475      7.18147101774386
  H   6.49814734022902      2.11931324589087      7.80344216010601
  C   3.76730275181270      1.91969526179794      5.97458471457400
  C   4.81629043331491     -0.24649605975946      6.00097172395663
  H   4.84355906780041     -1.29243389174725      5.70237887933083
  C   1.92350979792105      5.19942384232859      6.10485994744665
  H   0.95261610497091      4.89443515703053      5.68412017760327
  H   2.53174423673362      5.65651483765224      5.31495355511775
  C   3.77055815782496      0.58155602904124      5.57967595348150
  H   2.96920930744798      0.20400691307602      4.94850402211097
  C   2.74245455734116      2.92307745551688      5.52396023098153
  H   3.09439215760344      3.40274610882543      4.60058103498358
  H   1.75799913928597      2.46585665626427      5.35026430089968
  C   1.72943350781313      6.14573028024557      7.28609383277561
  H   1.22863937405553      5.62952365078907      8.11954710353851
  H   1.08002245578288      6.98030330493199      6.99550945210403
  C   5.82018234420438      0.29240653718176      6.81075530236117
  H   6.65292754718600     -0.31238269638626      7.16005551059863
  H   4.46738078264350      4.00503724728361      9.49655883862894
