46
Coordinates from ORCA-job BAXXAB-CH3OH_1_1_tpss_d4_lanl2dz_631gpol_Fe2.opt
  Fe  8.00422414389084      3.25588406752577      7.30882521092984
  S   9.95695226912090     -0.29344156945022      9.54070074728426
  N   7.78430917642587      4.12797584964857      9.03156446334562
  C   8.27863454778768      5.33723191659028      9.39396995571644
  H   8.82230640542855      5.87042446951284      8.61804610538227
  C   8.12884400630826      5.84701244662226     10.68354705216215
  H   8.54982562364533      6.81876862474515     10.92846439373957
  C   7.43883892560701      5.09003248552286     11.63808462758212
  H   7.30791366591254      5.45966023954958     12.65233526230932
  C   6.91239951500006      3.84797305034096     11.26222859460429
  H   6.36321660558067      3.23343045818873     11.97207237314721
  C   7.10518899048858      3.39239363722839      9.95849913705371
  N   6.42920885980422      2.24033919525264      7.95356166577928
  H   6.38259637334334      1.31342561777757      7.51640148368163
  O   9.73640498545881      4.38836037080349      7.03071532203990
  N   9.27051430137436      2.04078887389969      8.10487040479758
  C   6.59081687979531      2.07448914183048      9.43485231286507
  H   7.31826048093281      1.27330686728964      9.60867753655842
  H   5.63956100451729      1.79433028840302      9.90971128767845
  C   9.57020595690137      1.05353313714720      8.72676631366005
  N   8.15380748565768      2.43927020629346      5.56156849544765
  C   7.76709627310226      3.23093674218110      4.51677501166948
  C   7.85364414634078      2.80444762284789      3.19270789590998
  H   7.52852741649624      3.46233586438541      2.38944390351753
  C   8.36505140067043      1.52822002839078      2.91977375431825
  H   8.44658913103110      1.17531764011438      1.89440791967507
  C   8.75993995400903      0.71727561347201      3.99073629784353
  H   9.15978850801748     -0.28012552062102      3.82670722087076
  C   8.63906909434172      1.19985287757413      5.29436079413730
  H   8.94828237355791      0.62527710569678      6.16246926065539
  N   6.70488640443258      4.41924506041482      6.32165868551552
  H   6.57985257027957      5.33995769949530      6.75666446380653
  C   5.18907097850793      3.02041102655696      7.63314403979437
  H   5.06893853214755      3.77209712789382      8.42378592877245
  H   4.30007536084789      2.37572598867964      7.63553688973165
  C   7.25855757473989      4.58887949355869      4.94528461516348
  H   8.07805932962605      5.31530986144979      5.01643513261327
  H   6.51026506095062      4.98181193392127      4.24127316816168
  C   5.38940648769924      3.69766513277987      6.28742275212533
  H   5.45894841547726      2.94760001666521      5.48976240850285
  H   4.56343789261156      4.38073303015479      6.04711321595220
  C   10.63657313810584      4.19030983069322      5.89982212576101
  H   11.59425462115723      4.66864476973592      6.13090417199742
  H   10.77460349870048      3.12153364947943      5.70477769423126
  H   10.18298617808714      4.67946562588439      5.03564437740193
  H   10.12240545607989      3.83863240387274      7.76192552610613
