40
Coordinates from ORCA-job BAXXAB_1_5_tpss_d4_lanl2dz_631gpol_Fe2.opt
  Fe  8.11232177409326      3.00543991158795      7.18509460563346
  S   10.08991453654964      0.79421511763200     10.48148273842384
  N   7.91126475876361      4.12123943415496      9.01905492710727
  C   8.64138176693890      5.20032925712157      9.38555012401883
  H   9.21001503046569      5.68032034397620      8.59120529765952
  C   8.68410995979050      5.67166381332258     10.69621376318474
  H   9.29045207535418      6.53903278008461     10.94369537017181
  C   7.93706490329443      4.99939020920968     11.67238402641622
  H   7.94798802020074      5.33574708323778     12.70666753525658
  C   7.17973236812491      3.88524702741991     11.30011404290548
  H   6.59263961744253      3.33740307166520     12.03394713904303
  C   7.19421096230310      3.46580713574485      9.96560578357871
  N   6.24557118594843      2.23564366304551      8.04955765624978
  H   6.06162668480975      1.28035378580975      7.73159946449581
  N   9.33149003310554      1.70874812937315      7.92419968839545
  C   6.45700819542548      2.21522657289039      9.51936895573001
  H   7.07675598832809      1.33882021184571      9.75156720230953
  H   5.50936729409945      2.11377726689291     10.07039058907892
  C   9.67856429043016      1.31264909058799      9.01544814307363
  N   8.37949688304079      2.57682641634191      5.11903104294078
  C   7.79682635789505      3.37190482476841      4.18934757465081
  C   7.87195850118340      3.08544192770983      2.82420519826828
  H   7.38257284051497      3.73627579939139      2.10244394834351
  C   8.58924876941403      1.95718357629746      2.40827306374621
  H   8.66317274025394      1.71427645975442      1.35044851054767
  C   9.20617985047871      1.14758004380896      3.37066049982566
  H   9.77410059517893      0.26515705858754      3.08743099271187
  C   9.07691827770159      1.48776494272750      4.71722132936806
  H   9.52517720757189      0.90429320236470      5.51841295745205
  N   6.65511134442603      4.35162989061120      6.12690692968989
  H   6.53477521721951      5.24377868773082      6.61620128956868
  C   5.13200632474330      3.12824594794817      7.62292194597879
  H   5.12620505685089      3.99482353484809      8.29759573887229
  H   4.15597723286570      2.63042288752556      7.71138331580837
  C   7.10763696954134      4.60947785145549      4.73613476977305
  H   7.82710605622588      5.43934555063573      4.77242162951200
  H   6.27878557478503      4.91745088486969      4.08092485199739
  C   5.37297398827532      3.59256879119301      6.18665071348289
  H   5.47887543148238      2.72760775821891      5.51836173792365
  H   4.52991533488202      4.20169005760818      5.82647490680477
