41
Coordinates from ORCA-job BAXXAB-oxo_1_1_tpss_d4_lanl2dz_631gpol_Fe2.opt
  Fe  8.13395098571806      3.32487291752669      7.13452791588737
  S   10.81596372961687      1.70000734703790     10.11541922837255
  N   7.96579603914720      4.05826334182498      8.95894772238922
  C   8.68006438088460      5.12581400721219      9.38119542344802
  H   9.28776979727542      5.59983588323304      8.61498490988899
  C   8.64964648449497      5.54595055153364     10.71034741724504
  H   9.24065775744369      6.40588162703062     11.01354038912534
  C   7.86551549349426      4.83901923870885     11.62871110670932
  H   7.82594282595904      5.14119019743726     12.67270943337479
  C   7.13752125361065      3.72802422843992     11.18801826286986
  H   6.52674910149898      3.14716969798632     11.87525803113659
  C   7.21719991094574      3.35220524887977      9.84707898845880
  N   6.35723721629954      2.35453328866210      7.81760246361573
  H   6.24148913073548      1.45510077480295      7.34077468243529
  O   9.33326071043703      4.38434766114837      6.74472736372191
  N   9.13104650876261      1.86613551635326      7.86391436673002
  C   6.54872298251504      2.12402400498185      9.27543399631055
  H   7.21410268353100      1.26032670433843      9.38673855001587
  H   5.59807508878674      1.90830136462955      9.78370102511253
  C   9.86363773444662      1.82752200592134      8.83182466746037
  N   8.18844668111232      2.50746006307739      5.33398135932003
  C   7.78629696984432      3.32945571491332      4.32934438541134
  C   7.84860335244855      2.92901119946697      2.99486939080857
  H   7.51458708637867      3.60308615191968      2.20948647059378
  C   8.35711442223602      1.65925214345049      2.69236990170426
  H   8.42258270095253      1.32834853851416      1.65829232196755
  C   8.78072638632225      0.82708063337532      3.73462786204116
  H   9.18854891029329     -0.16108657348445      3.53936378915969
  C   8.68378064851058      1.28426619574156      5.05001825589430
  H   9.01639647160819      0.71100742370928      5.91116418344705
  N   6.76960520866068      4.51896752421991      6.17140554182044
  H   6.73207700890916      5.42940865708546      6.64079945582108
  C   5.19863406516846      3.24802050357968      7.53544331381318
  H   5.19375199403279      4.02323450352096      8.31247154176576
  H   4.24314629382118      2.70824724252692      7.58409044508259
  C   7.32213184511267      4.68894194622526      4.79345335588818
  H   8.18445983660541      5.36124238780462      4.87804591063505
  H   6.57981986331908      5.12545466919708      4.11112407545247
  C   5.41991114707186      3.87896921058376      6.16887393205197
  H   5.43323640210799      3.10616515661115      5.39002901729109
  H   4.63629288987996      4.60674110027218      5.91948954572194
