42
Coordinates from ORCA-job BAXXAB-OH_1_6_tpss_d4_lanl2dz_631gpol_Fe2.opt
  Fe  8.38109553097599      3.40344621857447      7.16527168051980
  S   10.85261480213100     -0.02241371259154      9.28328317582330
  N   7.92077904321023      4.26991387919955      9.12351271383808
  C   8.48653655476984      5.41885420397902      9.55263028166708
  H   9.05224275554556      5.95851781668810      8.79642174209561
  C   8.35246045244710      5.85989873305260     10.86995877850979
  H   8.81901947420146      6.79059010633024     11.18229469903620
  C   7.60973229149034      5.08102621261887     11.76647273216923
  H   7.48375265770845      5.39640586937783     12.80002398920613
  C   7.02384160953466      3.89152348073720     11.31701713615675
  H   6.43697750533375      3.26709159005956     11.98748691020465
  C   7.20530503987744      3.51073357690183      9.98494002466150
  N   6.45965462799705      2.39770079949462      7.94845772289568
  H   6.37561541484035      1.47946415618822      7.50277848572358
  O   9.41553110137364      4.87081747099874      6.68983806882416
  N   9.44367568202328      1.97651270273318      7.89135582405203
  C   6.64751442198753      2.22400532873622      9.40777020543278
  H   7.37294948996284      1.41332831232221      9.55328378637259
  H   5.71312731458849      1.94514297312230      9.91847527859970
  C   10.05299220272696      1.11834302645089      8.48651782356074
  N   8.22616574770113      2.47548310030504      5.18788073276664
  C   7.72990505650730      3.27653409074624      4.21424395372275
  C   7.73210050465748      2.88378787918755      2.87303686071849
  H   7.31911542547468      3.54323886657665      2.11263646648320
  C   8.27476622055906      1.63944831763151      2.53112419352495
  H   8.28978428607022      1.31497661261039      1.49284351936876
  C   8.79259635002391      0.81911711990594      3.54102755500143
  H   9.22251229214173     -0.15340249492498      3.31592286657910
  C   8.75001454390625      1.27483514485551      4.85935845167007
  H   9.14577917269200      0.69279327328102      5.68777917390831
  N   6.72947716994258      4.48336524267832      6.07752978379289
  H   6.66685565930877      5.40922067666286      6.51115144036650
  C   5.28269469836516      3.23803666135025      7.61169443101396
  H   5.26883078341168      4.07724719025375      8.31943672747490
  H   4.33794049828443      2.68608820906021      7.72571376271169
  C   7.21840203144496      4.62255397275156      4.68526777035240
  H   8.05564338292160      5.33146457434200      4.71836517602362
  H   6.44307166473570      5.00738611367376      4.00591829184517
  C   5.43702625346383      3.76457778796551      6.18663291219783
  H   5.46980242138514      2.92596013482543      5.47873649068801
  H   4.58608604238972      4.40458728182835      5.91074214080118
  H   10.38379182188599      4.72794749945867      6.71407623963804
