42
Coordinates from ORCA-job BAXXAB-OH_1_4_tpss_d4_lanl2dz_631gpol_Fe2.opt
  Fe  8.15670368309211      3.27318786388813      7.20302024602085
  S   10.69975845799584      1.57170720647615     10.22297357153775
  N   7.98721361357883      4.12391030112890      9.03718394149526
  C   8.72421638639673      5.17496861994592      9.45376937277704
  H   9.35220286449700      5.62564174380513      8.68887636211831
  C   8.68454038228466      5.61075962912465     10.77852945025894
  H   9.29130009526369      6.45770337796786     11.08727452212376
  C   7.86457056195260      4.93290469384119     11.68858726753133
  H   7.81385471009057      5.24976740442685     12.72792656733035
  C   7.11714089058550      3.83113187168954     11.25344241630356
  H   6.48497126063408      3.27452524898980     11.94143951849677
  C   7.20903542063420      3.44143785582968      9.91703829596969
  N   6.38534614410440      2.38435804662728      7.87201579261873
  H   6.30201820965044      1.45958710810671      7.43754585494056
  O   9.48445202478596      4.42272900613212      6.79959284463213
  N   9.10254193589834      1.66364311924204      7.89928286770749
  C   6.54136214327472      2.20920365121497      9.34951190051475
  H   7.19437826344325      1.34248575998209      9.50344249289768
  H   5.57316109425977      2.01255279910850      9.83114551377134
  C   9.81685043760475      1.61966062376543      8.87935141440094
  N   8.21133640616604      2.55107049837104      5.24421587706187
  C   7.74447731252338      3.36246254048750      4.26198192237327
  C   7.79703926908587      2.98628063439155      2.91783395152323
  H   7.40517034485504      3.65447219222084      2.15379387373582
  C   8.36048084675445      1.75046102367031      2.57777211964803
  H   8.41491242783587      1.44006782603968      1.53661995452167
  C   8.84635670826077      0.92193893555708      3.59622631332018
  H   9.29002284603860     -0.04554216377798      3.37610155794297
  C   8.75487913707934      1.35540126237256      4.91984762820012
  H   9.11887021786460      0.77320123825075      5.76320159475749
  N   6.63088993302514      4.52084721639101      6.08488239818932
  H   6.54164852856689      5.42959578885594      6.54749176721313
  C   5.19070723378633      3.21797962951835      7.53654248485893
  H   5.16089691652797      4.04027826638466      8.26354655742432
  H   4.26496525273107      2.63575092756998      7.64129948952081
  C   7.19267621756512      4.69573836578537      4.72939671983985
  H   8.01108761217332      5.42177785597116      4.81653318052181
  H   6.45473802110647      5.08213842441296      4.01019385641592
  C   5.35034427667412      3.77811340413642      6.12756440686702
  H   5.42078799525258      2.96027805452289      5.39852786625955
  H   4.48916848195296      4.40465405239611      5.85204143138408
  H   10.03070543414628      4.07731809517874      6.06134483497314
