76
Coordinates from ORCA-job BEMXAU_0_2_tpss_d4_lanl2dz_631gpol_Mn2.opt
  Mn  10.55909616229932      8.26764897103718     10.18538644665270
  N   11.71149410205439      9.77807620986546      9.96958332516141
  C   12.39737915530734     10.68065287265138      9.57677037517797
  S   13.31352882217702     11.89175422416056      8.98490027302536
  N   8.97158593656556      9.47949804996277      9.82703970629969
  C   7.80202443128428      9.39917687413256     10.51219347563814
  H   7.76804267264133      8.65828293674825     11.30396715199990
  C   6.71199654691275     10.20596081228050     10.19949482138206
  H   5.79487454746696     10.11091360623433     10.77677990607687
  C   6.80506844841480     11.11747135061210      9.14001188582396
  H   5.94985364954565     11.73898654666908      8.88572981194891
  C   8.00513882906453     11.21801155684287      8.41982500345292
  C   9.05558980097276     10.38404925921451      8.82406969888862
  H   10.02144464155461     10.43363679079143      8.33403476009908
  C   8.22864747331505     12.16752728533555      7.23699944978224
  C   8.63405221124378     11.33468659311796      5.99290360501000
  H   8.79944638558334     12.00088405655647      5.13430188027750
  H   7.84410303865431     10.61750710149616      5.72839720728661
  H   9.56001023907169     10.77157180844199      6.16719941988185
  C   6.95538251252983     12.96781326090560      6.89837999979572
  H   7.15156526575408     13.62082980769683      6.03756686495071
  H   6.64311201311635     13.60638534411551      7.73655920269851
  H   6.11785273735937     12.30650546748912      6.63361880536820
  C   9.36681606290269     13.16000186375241      7.58791874234158
  H   9.54344171967554     13.84010818651224      6.74231911591912
  H   10.31041245449184     12.64543466110818      7.81062249830845
  H   9.09785544650032     13.76456529827309      8.46450950757203
  N   10.46264450836764      7.76136850012957      8.24000855601482
  C   9.51767803482258      6.88325585749561      7.81320167250055
  H   8.90099428723008      6.44771011017482      8.59274620895307
  C   9.33731531495744      6.57407928510890      6.47025403885542
  H   8.55188002310391      5.86884888003440      6.20668156737735
  C   10.13976110409884      7.16971545702719      5.47633263856248
  C   11.12234504987450      8.06092044744613      5.93523189089550
  H   11.79161554949919      8.56979733615585      5.24720501224228
  C   11.25454607899652      8.32881201008519      7.29733917057526
  H   11.99343456274293      9.03808388453538      7.65939860383645
  C   9.91053779577363      6.85804896679815      3.99596864622648
  C   8.47592622722721      7.30670944426642      3.61373355465203
  H   7.71663522415965      6.78159972493569      4.20799673972943
  H   8.28665180066501      7.09054589076860      2.55307224050145
  H   8.34972691349085      8.38592037388045      3.77489002605756
  C   10.91583324627101      7.59206500124365      3.08632206597698
  H   10.71631335045790      7.33404036033959      2.03786288357659
  H   11.95197961799613      7.30314509870713      3.31099349922734
  H   10.82940630949325      8.68328701808276      3.18351332761122
  C   10.05433041323556      5.33212012861390      3.76827474760442
  H   9.33288120069803      4.76286213277980      4.36881746434375
  H   11.06372052207478      4.99033236761524      4.03380013300383
  H   9.87634757854361      5.09321648532701      2.71054516528339
  N   9.35628301730303      6.94298099331740     10.87113349602394
  C   8.72488025934521      6.02059037791656     11.30953644338475
  S   7.87523788966916      4.76864505712265     11.91212227720842
  N   12.13550864615357      7.13872735425445     10.68572500730025
  C   13.30352392179323      7.22934390274780      9.99732117205958
  H   13.31789026470862      7.93555382439111      9.17434745637275
  C   14.41911758312444      6.47565442879946     10.34108352828358
  H   15.33413398839604      6.57920331497199      9.76198531554993
  C   14.35237396449030      5.60007513538043     11.43318580632419
  H   15.22465403174694      5.01116611117670     11.70548473849034
  C   13.16016137655154      5.49552160184857     12.16489776841938
  C   12.08448399028261      6.28948864087616     11.74025823040633
  H   11.12545554378644      6.24745416937660     12.24441150059092
  C   12.96562631577138      4.56130170816569     13.36547051999139
  C   12.51622064845873      5.39114849952335     14.59472143386191
  H   12.37257801429138      4.72789993877110     15.45903291728617
  H   13.27229049241483      6.14360387283388     14.85752051326088
  H   11.56608043874417      5.90843709556289     14.40908661656892
  C   14.26757161406249      3.81729829250902     13.72441602574009
  H   14.09201120382637      3.17450383688738     14.59713801521549
  H   14.60871077485064      3.17430209260864     12.90076508845328
  H   15.07701282252964      4.51598397069198     13.98006915555171
  C   11.87103377630951      3.51877111891171     13.01950829854855
  H   11.71806961530139      2.84324529580512     13.87312515742682
  H   10.90855176653350      3.99328926019928     12.78867210373625
  H   12.16921801931328      2.91418454779308     12.15190861951486
