82
Coordinates from ORCA-job BEMXAU-CH3OH_0_6_tpss_d4_lanl2dz_631gpol_Mn2.opt
  Mn  10.82399802159930      9.23758711807398     11.05073377201318
  N   12.13063686217569     10.66052934351750     10.27907825487940
  C   12.50516967225794     11.08146660499784      9.21844863486626
  S   12.97318348303292     11.62374973408927      7.74852313944418
  N   8.97425918884183     10.36495173280607     10.25074560059612
  C   7.73119633933332     10.18354835353665     10.74959501857956
  H   7.67989298817340      9.71442575418346     11.72941982121183
  C   6.59079931328880     10.53727920620624     10.03069797068050
  H   5.60446215115396     10.38179584183910     10.46302526425922
  C   6.73627569142220     11.06898189579144      8.74233425377784
  H   5.85025834782660     11.32733747416617      8.16655097618117
  C   8.01729724674210     11.25543998612073      8.20009267129970
  C   9.10070956620847     10.89772518865568      9.02001285382934
  H   10.12348521017075     11.01962839938325      8.67204342091328
  C   8.28917697998258     11.78190020812410      6.78736354657357
  C   9.06781862198331     10.69613103459062      5.99803094198421
  H   9.25519521713231     11.04503386738734      4.97242037531150
  H   8.49091916489465      9.76249527966718      5.94765194647404
  H   10.03911369319031     10.47979642031165      6.46053919469253
  C   6.98144090909811     12.10057476772379      6.03649879087663
  H   7.21870878219268     12.46673918649968      5.02885266304784
  H   6.39963135342449     12.88155170914781      6.54674002295815
  H   6.34696916681310     11.20913031368145      5.92731837577934
  C   9.14843633856834     13.06882860553285      6.87307896550993
  H   9.33870560462678     13.45542556356034      5.86184471964771
  H   10.12026531668612     12.87597765429211      7.34474926759026
  H   8.62792940099622     13.84795287719184      7.44715715801010
  N   10.57467655487623      8.10869120056455      9.06460758038296
  C   9.41183313161250      7.50695039699247      8.73108138397813
  H   8.61033359497181      7.57744365527671      9.46194974030509
  C   9.23583478119539      6.82173200878453      7.53268773176835
  H   8.27680175894410      6.34651137009534      7.33730096866808
  C   10.28727796629911      6.74579058972962      6.59847071861596
  C   11.48685497727848      7.38357142920320      6.95411864920335
  H   12.34651393485727      7.38382348971976      6.29024675816617
  C   11.59167793404482      8.03860119563582      8.18283820428448
  H   12.51303970198534      8.53573836783340      8.47641227713538
  C   10.09073594771990      6.00052786352168      5.27515061419652
  C   8.92291924878920      6.66174480279317      4.49909505447756
  H   7.98805801424200      6.63064558556347      5.07415503172489
  H   8.75487089994546      6.13212510748100      3.55082496458851
  H   9.14982194716993      7.71233675306157      4.27340134879165
  C   11.35334333207771      6.03732747627574      4.39198823267139
  H   11.16170836009876      5.49286142163009      3.45771782509043
  H   12.20945123215871      5.55898045196667      4.88789295898172
  H   11.63401983523476      7.06645491701673      4.12862990340951
  C   9.73745652730312      4.52282878818634      5.58163882178161
  H   8.82436738389679      4.44351089816881      6.18567012181084
  H   10.55153342711705      4.03259480514972      6.13213219060084
  H   9.57396775523132      3.97422611912098      4.64340579725033
  N   9.46714730068878      7.99101450997044     12.14466256418730
  C   8.96733447894863      6.90833338061818     11.98957707480082
  S   8.30818757345098      5.43754147186634     11.72417095516888
  N   12.53421126660272      7.76748406180960     11.31196876499258
  C   13.82451969166836      8.16723826618348     11.28002984738192
  H   13.99180030211246      9.23307379369621     11.41580712138459
  C   14.86438931417032      7.26700287983538     11.05249266688406
  H   15.89401178136211      7.61836724371464     11.03463166694209
  C   14.56090327450045      5.91760620036115     10.82708499428172
  H   15.36640474892352      5.21406130637809     10.62792187694827
  C   13.22634689250687      5.48321064793548     10.85165505421552
  C   12.25690075561419      6.46366974946380     11.11777402230434
  H   11.20184443436549      6.20282358012359     11.15722784239077
  C   12.78084006321439      4.04256611973301     10.57974633490496
  C   12.00791247932477      3.50230287679953     11.80954660640242
  H   11.68518584625063      2.46864745101561     11.62003688325728
  H   12.64746358046838      3.50445296934864     12.70306696036315
  H   11.11106035464746      4.09829217257094     12.02174510025956
  C   13.98152977109296      3.11703653274914     10.30051012417612
  H   13.62140208893488      2.09668508789751     10.11285359005739
  H   14.54902000703339      3.43889074928858      9.41533012269334
  H   14.66833468156430      3.07589608813667     11.15791313685747
  C   11.84583073794304      4.03578332609105      9.34125149441516
  H   11.53091377185469      3.00610237129107      9.11902419376441
  H   10.94186232733102      4.63318013945264      9.51334120547390
  H   12.36385793538006      4.43795251110628      8.45927291013523
  O   10.84946923785828     10.18392185950666     13.09863820050713
  C   10.47736946688249     11.57330693968493     13.23187801436186
  H   9.47176124006825     11.75733240232854     12.82982821931059
  H   10.52737993151524     11.87994085376755     14.28494229481505
  H   11.20933186841779     12.13110527461815     12.64302416513650
  H   10.14826991643318      9.60132436780459     13.46835149235153
