77
Coordinates from ORCA-job BEMXAU-oxo_0_4_tpss_d4_lanl2dz_631gpol_Mn2.opt
  Mn  10.50184703608586      8.48566274763230      9.61149747577451
  N   11.74092001942719      9.62029144183350      8.69690629421002
  C   12.26911901168100     10.38977002961127      7.94870125535294
  S   12.97264382707535     11.42756587732313      6.91144042445637
  N   8.98567237747248      9.67223928860457      8.98542635866367
  C   7.86853378330948      9.18352571825700      8.40314006404374
  H   7.81249370430696      8.10359781563878      8.31198913262629
  C   6.85565705850422     10.03511888453319      7.97230738257103
  H   5.96217156138950      9.61942866756055      7.51215113577301
  C   7.00269702151971     11.41764238527115      8.14410050932589
  H   6.21493254447371     12.08551407661830      7.80369308543186
  C   8.15408757021935     11.93260897919393      8.75969944209224
  C   9.11745954310474     11.00012166693104      9.17287243803186
  H   10.03086297941968     11.29301439822934      9.67985060544372
  C   8.41564565107088     13.42373070323866      8.99476132486136
  C   9.69839545765739     13.83360540363572      8.22549917239585
  H   9.90704087511746     14.89993253045157      8.39150321478299
  H   9.57852555754100     13.66927996646930      7.14628427216563
  H   10.57405364092948     13.26066032844619      8.55449109822111
  C   7.24172988675434     14.29429345576447      8.50515720887367
  H   7.46906369880528     15.35161262925949      8.69481787077001
  H   6.30758892920051     14.05354729361851      9.03259264435193
  H   7.07310186514484     14.17966161175198      7.42488425413052
  C   8.62045045890737     13.67098420215530     10.51150075394882
  H   8.82702052371426     14.73559861105273     10.68923138156818
  H   9.46529245701626     13.09241826117125     10.90623366599304
  H   7.72247686170689     13.39275117359633     11.07970394747254
  N   10.35876274659410      7.41080938297281      7.67753155986598
  C   10.27733415594711      6.06114745475132      7.62658746853876
  H   10.28865047666530      5.54835981420495      8.58406452665364
  C   10.17239548315782      5.35764351656651      6.43079124441401
  H   10.10908802529076      4.27223315434249      6.46967933191764
  C   10.14001050430926      6.04339221023392      5.20067008854771
  C   10.22415154912485      7.44364185951913      5.26904591123006
  H   10.21101740477462      8.05552703789703      4.37162433973940
  C   10.33391128289680      8.08058953018717      6.50619176828193
  H   10.41329812680677      9.16184349458792      6.57551342944751
  C   10.01725993260693      5.27029686649637      3.88493856122451
  C   8.69812799896524      4.45554088202907      3.90559402729421
  H   8.67366316984844      3.74889982063892      4.74525339312588
  H   8.60010418846920      3.88056285568361      2.97427443956386
  H   7.82843285036949      5.12032366630853      3.99419613470734
  C   10.00492927403588      6.20434724605997      2.65875316326524
  H   9.91211247931279      5.60487322327557      1.74346544644700
  H   10.93254168273187      6.78852497579955      2.58363923540988
  H   9.15628719916659      6.90181070761973      2.68869705161771
  C   11.21941585641998      4.29913657519488      3.75960128275375
  H   11.24971938769815      3.58601354353481      4.59369110037816
  H   12.16894560051325      4.85084308190800      3.74583093365877
  H   11.13914860419501      3.72579724261433      2.82572574846389
  N   9.24366434170053      7.18267214542786     10.23317779993244
  C   8.69699423616653      6.16369335565204     10.53957535390051
  S   7.95995749477493      4.76696967448635     10.93182637596105
  N   12.00499107169022      7.23498148535699     10.13438451838874
  C   13.00162891681826      6.88963957360052      9.28998198393400
  H   12.98249208384061      7.36093477826013      8.31253924906614
  C   13.99231735141428      5.99404179332490      9.68204653554862
  H   14.78828646151558      5.73411861738372      8.98798494158043
  C   13.94876013634213      5.44390974980163     10.96972624510760
  H   14.71728497028921      4.73848874752977     11.27668100334246
  C   12.92580802598879      5.81016221069200     11.85828509544301
  C   11.97727396380313      6.72733235288265     11.38224329491105
  H   11.16095472712096      7.09491091498860     11.99552082009496
  C   12.78915821258621      5.27595871676454     13.28762272909919
  C   12.85114845665002      6.46795686176632     14.27691952605026
  H   12.73877154251357      6.10353593447671     15.30763623462404
  H   13.81297685655142      6.99255007831264     14.19759435903653
  H   12.05112741920161      7.19431765335904     14.08466851063191
  C   13.91471730251501      4.28230876294608     13.63643572599780
  H   13.77679664611477      3.92220369134372     14.66449694817427
  H   13.90416463901047      3.40573766646717     12.97301292944290
  H   14.90676102772285      4.75272774078180     13.57836046012915
  C   11.42312611584116      4.55623698005127     13.42782630869644
  H   11.30938808965660      4.17156243050999     14.45111486694143
  H   10.58236414665799      5.23049940371620     13.22343501399377
  H   11.34923025168214      3.71124975931079     12.73052171481267
  O   10.60426363037230      9.29486263052776     11.06368485527584
