76
Coordinates from ORCA-job BEMXAU_0_6_tpss_d4_lanl2dz_631gpol_Mn2.opt
  Mn  10.66052682116494      9.45282473200027     11.26102010139741
  N   11.91864932671384     10.94932826064167     10.71561001429651
  C   12.33597090689516     11.42592877077191      9.69383854937172
  S   12.87379683254007     12.03174600486844      8.27734683123725
  N   8.82578058659422     10.54608926001967     10.45933108470561
  C   7.58247919334485     10.37059862613980     10.95908199466083
  H   7.53045973892343      9.92752487722692     11.95070564932360
  C   6.44525758968036     10.71235998503617     10.22874170306004
  H   5.45748675304397     10.56489371753789     10.66034258826684
  C   6.59490557448832     11.22320341094629      8.93250494808242
  H   5.71066266086754     11.47027788436636      8.34903745468761
  C   7.87781235992464     11.40695713602772      8.39303751371264
  C   8.95714820673101     11.06481572816049      9.22296861496240
  H   9.98140320183668     11.19145960812578      8.87943905096196
  C   8.15733616782209     11.91388825019111      6.97452081388627
  C   8.95743129117661     10.82505291754183      6.21148609825825
  H   9.14906361012448     11.15624922326847      5.18084719920995
  H   8.39532122095475      9.88151379707698      6.17472477134983
  H   9.92731956319108     10.62958959066470      6.68672999754497
  C   6.85375528158377     12.20396941238530      6.20508299635382
  H   7.09659687187176     12.55666530096496      5.19394601963577
  H   6.25853345012623     12.98629026918428      6.69699571343272
  H   6.23051895233874     11.30357394069248      6.10491308782538
  C   8.99935524788504     13.21292773504128      7.04869211434894
  H   9.20296555707298     13.58209561748386      6.03347598494222
  H   9.96390091211810     13.04367253289332      7.54393275678504
  H   8.45886185939130     13.99607872441684      7.59777884547258
  N   10.48833216684041      8.33154035617899      9.31757080923033
  C   9.38162751518981      7.61535033314619      9.01798036063585
  H   8.59497428426971      7.61205542357403      9.76907940154336
  C   9.24803446375514      6.90646699796444      7.82789064073561
  H   8.33506115794721      6.34028432026383      7.65644158668607
  C   10.28187728295051      6.92455371921811      6.87062226404702
  C   11.42150226164222      7.67904625313339      7.19463642288891
  H   12.26255565906099      7.75603751012938      6.51172419908302
  C   11.48898481802981      8.35480881643340      8.41406326504744
  H   12.36279453002787      8.94471983434091      8.68154268764667
  C   10.13394281917043      6.14958036843680      5.55835863600185
  C   8.89019131648913      6.68147927411174      4.80099294490419
  H   7.97294929213401      6.55238051983293      5.39046413399425
  H   8.76527138203557      6.13357311809209      3.85671827928532
  H   9.00035718207509      7.74939071821428      4.56943463881839
  C   11.36921916203108      6.30191601775738      4.64891397135352
  H   11.21620391587572      5.72596434012161      3.72668074305025
  H   12.27900921749996      5.92114842080081      5.13346151928328
  H   11.53847196527035      7.34985311152458      4.36523480181878
  C   9.93753470209849      4.64663521612648      5.88442856462441
  H   9.05068683646223      4.48107943440625      6.50970529096112
  H   10.80897818880807      4.24487278505548      6.41844492969112
  H   9.80866017772094      4.07624413323138      4.95399166906828
  N   9.47129429312169      8.32552940297525     12.45982351615616
  C   8.92780434773637      7.25410350519064     12.41544877576399
  S   8.20653890409000      5.79491265379348     12.30152325697847
  N   12.44901077710290      8.05845673251190     11.55522483779811
  C   13.73388422310349      8.46995872161799     11.48157466781732
  H   13.89266482468336      9.54115636614554     11.58122637946176
  C   14.77867696326168      7.57274735667233     11.26396679033294
  H   15.80403160507605      7.93355762750959     11.21644756651332
  C   14.48527895384949      6.21405905013637     11.08698498955719
  H   15.29391787747238      5.51235638307566     10.89431806561250
  C   13.15593684676894      5.76776746171571     11.15208675727585
  C   12.18267143599781      6.74564359319845     11.41113120668252
  H   11.13199806347358      6.47439480245605     11.48828167793587
  C   12.71714578603368      4.31842049832676     10.91996173019162
  C   11.93986929339618      3.80601402116624     12.15891312971656
  H   11.62704155209756      2.76499831584842     11.99548234584619
  H   12.57307980995456      3.83807655396932     13.05607659773602
  H   11.03700439130690      4.39969383033337     12.35077653003690
  C   13.92170098924436      3.39023371837189     10.66857162065764
  H   13.56629888048449      2.36309464962925     10.51175200616833
  H   14.48823608831920      3.68704872176946      9.77403965948439
  H   14.60862768684330      3.37821125965249     11.52670805185796
  C   11.78838760810561      4.28248879287688      9.67712368676803
  H   11.46913879031711      3.24954459447742      9.47811541379502
  H   10.88770205417347      4.89046192259932      9.82969506898436
  H   12.31253791819291      4.66131312820901      8.78843141269747
