30
Coordinates from ORCA-job BEPTIA-OH_0_2_tpss_d4_lanl2dz_631gpol_Mn3.opt
  Mn  3.58777337689827      6.55939898294502      2.21107569452166
  Cl  1.51265461927083      5.62214741562516      2.62617347412561
  O   5.16263817407353      7.28355744208218      1.78094963840575
  O   4.03826090300111      5.10792749950140      1.07192003215581
  N   2.66866290240318      7.67494887442603      0.85459251623517
  O   3.23307525003340      8.00164633263602      3.33299698159852
  N   4.28714435078970      5.35753832651578      3.61431154162118
  C   4.40062346427204      5.65297150468262      4.92170839803690
  H   4.11764908514974      6.66234592313568      5.20681414512603
  C   2.32015366914801      8.88445185172951      1.34449496077300
  O   4.66960837043276      2.92167909627350      1.07558863366519
  C   2.67408705605729      9.08747986826826      2.79338408599730
  O   2.44647384824245     10.13480147222088      3.38498388923264
  C   4.42922434768415      3.97401340941428      1.65420186630277
  C   5.04435226003817      3.11785082632753      3.99325375952935
  H   5.27643201703821      2.14565733924415      3.56675603862041
  C   4.59728128758705      4.12818834211757      3.14499045338016
  C   4.84843296457066      4.68623438747144      5.82583218507718
  H   4.93666850763171      4.93961338383129      6.87912494550794
  C   1.65819079582055      9.82538696667134      0.55840189617525
  H   1.39715552051658     10.78266982693193      1.00154114717835
  C   5.17043118269812      3.40461549661951      5.35745285429646
  H   5.51388392860524      2.63905974349553      6.05041063767889
  C   1.71243242489461      8.22272113532537     -1.25322497403506
  H   1.47999891891101      7.92613606834811     -2.27279015391225
  C   1.35162194094216      9.48629502911741     -0.76416973298534
  H   0.83102495568442     10.19376802013081     -1.40651583687687
  C   2.37695767060110      7.32765054017690     -0.41087681694841
  H   2.67763606440576      6.32780414393528     -0.71190133740039
  H   5.62123014259808      6.65095075079929      1.18271907691674
