29
Coordinates from ORCA-job BEPTIA-oxo_0_1_tpss_d4_lanl2dz_631gpol_Mn3.opt
  Mn  3.81562606091227      6.65572961837208      2.12088219210963
  Cl  1.59402947494875      5.80343894330715      2.69954915164587
  O   5.24380210924495      7.20278158400426      1.75311422290425
  O   3.83567168932283      5.11341393790166      1.04330940583044
  N   2.78886989292999      7.70376909733617      0.81724998341501
  O   3.31315799213077      8.01487532147831      3.32380997886940
  N   4.37025304018044      5.42473834116498      3.54651156260475
  C   4.54815775523990      5.73408940376124      4.84221343064252
  H   4.36501816726684      6.76941207681467      5.11430109440475
  C   2.28739974219122      8.83693002866223      1.35568372301741
  O   4.39137810415803      2.92021948448910      1.04744439293987
  C   2.61654215083099      9.02819509652455      2.81054695900373
  O   2.27798257894379     10.02379003438878      3.43933224330747
  C   4.24748764350285      3.98910225526609      1.62865802677381
  C   4.90792762441782      3.12875891108313      3.94955336764600
  H   5.02436619692003      2.12960507172761      3.53859266517577
  C   4.53258097562702      4.16186574314751      3.09497550815448
  C   4.92086054712214      4.74259380496255      5.75364988033229
  H   5.05794357171128      5.00328604584737      6.79987207273962
  C   1.51546086550535      9.71723173441590      0.60232515342233
  H   1.13367202285556     10.61503449942058      1.08083879318715
  C   5.10414787006047      3.42784772894941      5.30300805904122
  H   5.38898668056250      2.64453901713680      6.00245586294957
  C   1.78020449760333      8.20935934951920     -1.27265905387221
  H   1.59163291818968      7.92845501968901     -2.30555569983168
  C   1.25885989649408      9.39472028522889     -0.73549133195436
  H   0.65286490840528     10.05480399568861     -1.35277974304677
  C   2.55086758433363      7.37084251578341     -0.46294366480732
  H   2.97164743838806      6.42627105392846     -0.79484823660514
