28
Coordinates from ORCA-job BEPTIA_0_5_tpss_d4_lanl2dz_631gpol_Mn3.opt
  Mn  3.00471067004264      6.34918338544135      2.33725879522468
  Cl  0.88371232825886      5.52970282574021      2.88665301999895
  O   3.63108173839405      5.03175498914448      1.15131206838198
  N   2.51297011875965      7.61603984917819      0.85556668499641
  O   3.07215976382267      7.93807295567823      3.33774156292818
  N   4.11957278181012      5.31368415647344      3.65301314870405
  C   4.27966342467843      5.58609943797292      4.96336671537442
  H   3.86017378413907      6.52779843150957      5.30738401042890
  C   2.32298175632195      8.88043674136252      1.30607916831217
  O   4.75915979927904      3.06266318770604      0.99705735650207
  C   2.67731962119844      9.07481928932899      2.75863394898654
  O   2.61723363840149     10.16651266545413      3.30814614377778
  C   4.33977619350058      4.01296842152850      1.64405774492417
  C   5.27813817622610      3.22672554965972      3.89817559264179
  H   5.64355046719265      2.32109367796069      3.42119458723581
  C   4.60282746509115      4.16445027204066      3.12067087986024
  C   4.94901782360348      4.68910609674931      5.79880149980467
  H   5.06918493220229      4.92575554176301      6.85279999877287
  C   1.84151029512911      9.88775817894685      0.47323963481339
  H   1.70651572901446     10.88426165015539      0.88544695791023
  C   5.45144861778345      3.49511300743473      5.26080270264446
  H   5.97086540686188      2.78312666392056      5.89917297006747
  C   1.75362606298630      8.25460599827944     -1.31157604780731
  H   1.53787831798579      7.97536507686624     -2.33960866014160
  C   1.55084264771147      9.56614460713200     -0.85772489836607
  H   1.16934857458646     10.32707506717518     -1.53575145898263
  C   2.23838723054275      7.29175369485093     -0.42361184515400
  H   2.41804263447555      6.25622858054647     -0.70020228183967
