67
Coordinates from ORCA-job AGUDOW-OH_0_4_tpss_d4_lanl2dz_631gpol_Fe2.opt
  Fe  5.35357129459115     -0.60924163319636      5.08274451722335
  O   3.71772398543731     -0.06273019792856      5.99505327037929
  O   5.64194853669017     -2.58357583347381      5.29070217342828
  O   2.96121862400599      4.39111581856069      4.46614878440944
  O   1.19330496261511      3.12160241353522      5.12873485283642
  C   0.35289811749708      4.28629001345576      4.89393404352827
  H   0.70197309208960      4.79000001520506      3.98655685629457
  H   -0.64323015653283      3.86234342176982      4.72941921629186
  C   0.37775012760316      5.22790447507338      6.09440180491173
  H   -0.31868293394231      6.06237727705116      5.93155835511942
  H   1.38538930785036      5.63648700942225      6.22961483333701
  H   0.07693958878813      4.69939615948815      7.00844944646267
  O   7.39808749873478     -5.13901874343667      2.42264871984251
  O   8.54802581730567     -3.34724078155337      1.62566672857783
  O   9.58780786577205      4.41541078242156      4.14319216342796
  H   8.94872711337340      5.13224901516061      4.31946697793826
  O   11.05231486348383      2.27973324796686      3.50348901429089
  H   11.21440955594123      3.24634672279352      3.55750822911215
  N   5.68948726279436      1.44295060475045      4.80833342286689
  N   7.17886697347246     -0.62339478950606      4.13981270391234
  N   6.31229258870918     -0.42288703371523      6.85772399283472
  N   6.95089647029509      0.41748267344975      8.79935881783824
  O   4.46240978337419     -0.81262105329500      3.54291519100537
  C   2.91891037411374      0.91690301174869      5.74716998597342
  C   3.36674700757104      2.12602388827943      5.13885336353507
  C   4.72423683284332      2.33363598663601      4.74621888568186
  H   4.93269587208942      3.33101588934719      4.34540494920000
  C   7.01472051492338      1.73971509327366      4.47029611444667
  C   7.58152305104138      3.02964774284854      4.48732749770191
  H   6.97905480295889      3.88771196169489      4.78533989682878
  C   8.91919533378914      3.20067851052727      4.14422894247485
  C   9.72684568744902      2.09374106424354      3.80128058127298
  C   9.17977221222818      0.81198473654750      3.79904746745262
  H   9.82602370657211     -0.03120455990985      3.56876384288607
  C   7.82223653006692      0.62437139300714      4.11799750327137
  C   7.62271917739330     -1.64338856343757      3.42626025381225
  H   8.44882290982775     -1.46597443166431      2.73413831388312
  C   7.10873298336024     -2.97063400830616      3.46231348724722
  C   6.13152306490145     -3.38845893303822      4.41971761974961
  C   1.49623329354350      0.66728487440092      6.21073507645206
  H   1.47619407298509     -0.30617317891009      6.71083717120420
  H   0.81212253781951      0.65539568059466      5.35326526800097
  H   1.14258676180872      1.45314990998988      6.88782259217164
  C   2.52741114462895      3.31147839104063      4.87964004114488
  C   5.61884515358073     -4.81024937500570      4.50400166442525
  H   4.90374096990657     -4.86097094867081      5.33154736390042
  H   6.43700633506277     -5.52447143061972      4.65143503094195
  H   5.13087009547164     -5.09746268768862      3.56428551770315
  C   7.65820337644949     -3.93823879690065      2.49834681464409
  C   9.13347868516772     -4.25562651149382      0.65797791273474
  H   8.32719115710036     -4.71725911835997      0.07444655043146
  H   9.65947561563919     -5.05621973465906      1.19370032746246
  C   10.07191776061126     -3.42684867097578     -0.20759243089206
  H   9.52267981238790     -2.62896296988820     -0.72328304748316
  H   10.54620081233577     -4.06699435138124     -0.96357558598703
  H   10.86037984966029     -2.96725766660502      0.40208763852443
  C   6.06157437753181      0.50745603959902      7.77240291983662
  H   5.27368668852573      1.24465646396959      7.71610603878387
  C   7.81011403999636     -0.63501265798072      8.51197070276239
  H   8.61092151323454     -0.91210478150968      9.18353655534172
  C   7.40102480709765     -1.14402214235028      7.30317853011812
  H   7.79436316473581     -1.96521688005932      6.72229645025679
  C   6.98214079234995      1.26498611836768      9.98915112194531
  H   6.19608982344892      2.01999339300064      9.89967248819775
  H   7.95441550492807      1.76446897849394     10.06912568105530
  H   6.80382243002985      0.66312598100501     10.88784126375337
  H   5.05633902288306     -0.50571229320023      2.82307752128178
