65
Coordinates from ORCA-job AGUDOW_0_1_tpss_d4_lanl2dz_631gpol_Fe2.opt
  Fe  5.32031898402862     -0.14861160144994      4.42667102649115
  O   3.55706961966695      0.03299978563114      5.10560044810777
  O   5.00969214480293     -2.02094185413432      4.53351147927278
  O   3.14531764801529      4.79965985390853      5.12427852126113
  O   1.51283152510350      3.51997863907550      6.05790933325403
  C   0.82395934012038      4.75688608594288      6.38977608999856
  H   0.93021113934535      5.45367773045139      5.55142434857852
  H   -0.22349448265645      4.45493029965551      6.49625618439920
  C   1.37432099049060      5.35784003949319      7.68009126316451
  H   0.78974110449437      6.24532238217807      7.96061836131013
  H   2.41824918504148      5.65774851988570      7.53770658784941
  H   1.31659716100739      4.63077068684516      8.50074620668833
  O   7.68317479585972     -5.11895283436648      3.49276579401221
  O   9.09316352738338     -3.55753908780455      2.63443879687354
  O   9.05555825851535      4.70940679025699      2.31948380911590
  H   8.42035951236310      5.42324903876931      2.52048137750573
  O   10.51914492178295      2.55600791892655      1.74592539232727
  H   10.62608240351920      3.52492259409403      1.63074429117455
  N   5.52407607427706      1.70178936668709      4.10474910856810
  N   6.96939631072416     -0.33563261304690      3.52390374212615
  N   6.10550864124324     -0.10308782127537      6.20482681222550
  N   6.35955951584515     -0.57114069669670      8.35130153789219
  C   2.88894860949841      1.10383070921040      5.35971886478037
  C   3.40229182913906      2.41319456147460      5.09985812920568
  C   4.65561583282420      2.63378696428162      4.46858739872434
  H   4.88260832389987      3.68354697323726      4.27773234060073
  C   6.76023161924261      2.02776677180568      3.50115916830100
  C   7.23206589852292      3.32598446450456      3.22363822026891
  H   6.63313681344935      4.20302937185781      3.46396791987798
  C   8.48179460415871      3.48783301755182      2.63599374156624
  C   9.28655308656870      2.37030782180051      2.31821965240939
  C   8.82776840436977      1.08478189785689      2.59295646459236
  H   9.47174627978574      0.24722332734190      2.34015797670787
  C   7.56180473593765      0.90386711803852      3.18114321918732
  C   7.57477961573302     -1.48808008192580      3.26741999505908
  H   8.53399987553217     -1.46787033299944      2.75383304875540
  C   7.07697456253610     -2.77555203998126      3.59847907250900
  C   5.79642465699358     -2.98357944191426      4.20252030886513
  C   1.50887055984878      0.82668922426695      5.92652620064136
  H   1.36711981532954     -0.25912136719805      5.93124403448995
  H   0.72345189353558      1.30492617526996      5.32950638554361
  H   1.41048589305468      1.21998780160339      6.94593507964466
  C   2.70907305119225      3.67904657395211      5.40569567169746
  C   5.23745612404055     -4.36199639897163      4.48884291746142
  H   4.23181228297976     -4.23372943619986      4.90438188388173
  H   5.87571837465187     -4.90798848884577      5.19439441209616
  H   5.19780404582386     -4.97702162926185      3.58177248318853
  C   7.92381561125569     -3.93327027460308      3.26353060520647
  C   9.96882939713695     -4.65905485254294      2.28568215030132
  H   9.43113481995023     -5.34226561651833      1.61585351437137
  H   10.22133932086487     -5.21523867260429      3.19746720101068
  C   11.19556438505224     -4.04831230525145      1.62316509917939
  H   10.91410209398845     -3.49199953499242      0.72004707011110
  H   11.90052259160511     -4.84053895989517      1.33727310601399
  H   11.70597617078071     -3.36027357388916      2.30928261310192
  C   5.60270969103012     -0.77711147903805      7.23700293110815
  H   4.72177185939329     -1.40157412030491      7.19606177488654
  C   7.39846731371759      0.27920960504140      7.99657479982140
  H   8.14308578788218      0.59258020545120      8.71553573970860
  C   7.22728652516366      0.56165524491547      6.66248221816376
  H   7.81489336864415      1.18434773259482      6.00178143108013
  C   6.13574169973250     -1.16862946053113      9.66581521892312
  H   5.18009766832025     -1.70016509085772      9.64870602119046
  H   6.09741151676129     -0.38481954159344     10.43067849692766
  H   6.93867506909750     -1.87598608516361      9.90526490664105
