68
Coordinates from ORCA-job CEHXOG_1_5_tpss_d4_lanl2dz_631gpol_Fe2.opt
  Fe  4.67978069539497      3.80643255341187      9.00515244332820
  H   4.71666217378383      5.32567781261478      8.35495078092688
  P   6.69669935635550      4.30544037529371     10.41114670804271
  P   2.23173408302461      3.82042377284819      8.35799129779339
  P   3.61215740992271      4.22244441800946     11.20285316203987
  H   2.90543263891273      3.35723025416865     12.07896529855706
  C   6.14187177957999      5.13109696375175     11.96122187778077
  C   7.04881095312615      5.78358357009288     12.81842149013736
  H   8.09114677156310      5.88958306751414     12.52359256782962
  C   6.62944568252053      6.28884174040001     14.05425432252881
  H   7.34356618075346      6.79167014374507     14.70343286374415
  C   5.30016000011553      6.12417542761507     14.46773330778925
  H   4.98137715560059      6.48739785197059     15.44270174990375
  C   4.38209510892830      5.48778889611021     13.62621061283608
  H   3.35433088274515      5.34681089687088     13.95841277891049
  C   4.78340140070086      5.01888268610814     12.35925987249916
  C   2.31495741203187      5.42384175290562     10.69844063265096
  C   1.96330018470378      6.54085607270458     11.47585702448054
  H   2.49895115821001      6.75410980596443     12.39784434178029
  C   0.93715630093549      7.39659490654307     11.06353148986480
  H   0.67720567908781      8.26086305172243     11.67133745965582
  C   0.24588989538126      7.13738141249096      9.87318012877084
  H   -0.55985285795378      7.79560647584224      9.55433339267739
  C   0.60206574121380      6.04023069178539      9.08196296730462
  H   0.07127310114897      5.86745805750013      8.14799829146440
  C   1.64568171211221      5.17598788772146      9.46530280014396
  C   7.55830048011928      2.75637007253236     11.01872075826463
  H   7.95690642476741      2.30564168672937     10.09529877600490
  C   6.48474942254665      1.80800580570960     11.59338414281316
  H   5.66715050031677      1.64090825179803     10.87424671249093
  H   6.04956465172742      2.21953072315888     12.51499011670776
  H   6.92797174564231      0.83329736267502     11.83583737835844
  C   8.71212137588039      2.98052899748104     12.00883899796066
  H   9.48096512557259      3.65144294759365     11.60365080181747
  H   9.19516457034742      2.01974107833901     12.23424130083611
  H   8.34329667309370      3.40019855449143     12.95355923149519
  C   7.99342968559437      5.41205911927768      9.66978689768756
  H   8.84519603768402      5.47444777879998     10.36522823948744
  C   8.46789634051773      4.78002099079329      8.34341310072206
  H   8.90861468165763      3.78471079172164      8.48766131700554
  H   9.23097851927836      5.41970048529473      7.88130374082045
  H   7.62721887679561      4.69227156584291      7.63993530982525
  C   7.41078228815786      6.82183298401363      9.44224929816840
  H   7.10326922435460      7.29368591073420     10.38371171089507
  H   6.53587760293858      6.77510528926468      8.77951101796138
  H   8.16974885425087      7.46025036296332      8.97054516234672
  C   1.05216354434081      2.39064163603961      8.65783363357773
  H   1.37287596322582      1.62217813998073      7.93724580747184
  C   1.26582801012730      1.83535370798406     10.07869055356206
  H   2.31817269825186      1.56978829497744     10.25459208684424
  H   0.65848677656963      0.93226071155524     10.22414070577926
  H   0.95483632959570      2.56898613620564     10.83625286710200
  C   -0.42473923749022      2.74062915216500      8.40437725912566
  H   -0.60364143972716      3.06341820657849      7.37089630304714
  H   -0.76148884476296      3.53607846881538      9.08253359288885
  H   -1.04928368168846      1.85524928319037      8.58721346185981
  C   1.85390275364840      4.39777668270322      6.62288656439742
  H   0.77249926213462      4.59197918004786      6.55810145428876
  C   2.62231357776808      5.69018152816838      6.28767224596306
  H   2.39884009005112      6.49764991832083      6.99562155506577
  H   2.34567487516954      6.02835620575597      5.27971490390674
  H   3.70531161798335      5.51361114279055      6.31102746095493
  C   2.20801445548654      3.26609680454770      5.63432952866931
  H   1.61294935198771      2.35957447010576      5.80335561846269
  H   3.27272048529468      3.00204869721769      5.70626493889681
  H   2.01568068363724      3.60449719992954      4.60771366846101
  O   5.80908325623988      1.43148930616929      7.34574207982422
  C   5.39039579101252      2.31549382183011      7.95899003473815
