69
Coordinates from ORCA-job CEHXOG-oxo_1_5_tpss_d4_lanl2dz_631gpol_Fe2.opt
  Fe  4.52768208172164      3.27321512093201      9.32702017160872
  H   4.52483430928436      4.87841903111524      9.09412791599050
  P   6.44685846928399      4.14813248906648     10.42300640479360
  P   2.37706787047884      3.86004621973874      8.49791238473535
  P   3.41668605948601      4.08195070358278     11.45793598100530
  H   2.70196405674712      3.40252890119010     12.48107083410508
  C   5.97120368791584      5.09770839637276     11.92006369868135
  C   6.93313207693758      5.84634572219606     12.62545517591320
  H   7.93586070313052      5.96916481074489     12.22234217085170
  C   6.61658027364296      6.43361025665776     13.85539955950268
  H   7.37040771642790      7.00932806747317     14.38849929659206
  C   5.34241578570862      6.25860442885132     14.41073049644095
  H   5.10610630611658      6.68561236952267     15.38322953634075
  C   4.37162432287881      5.53243130130198     13.71303187748248
  H   3.38772954503952      5.38773067468583     14.15637606425720
  C   4.66461478264732      4.97617486456342     12.45319391727309
  C   2.16977619374144      5.31461799627711     10.89766128584072
  C   1.66579418593533      6.33287777388740     11.72344209615041
  H   2.04366037915820      6.45235891992699     12.73591516577078
  C   0.68568903198211      7.21129031608554     11.24893314139173
  H   0.30649886197199      8.00033940958639     11.89527250569166
  C   0.19252509311138      7.07025728585965      9.94608552740267
  H   -0.57287721964480      7.74852312661420      9.57434417902372
  C   0.68708017355268      6.05992343183476      9.11381758758962
  H   0.29512380791713      5.96999480507578      8.10311981498495
  C   1.68653398121166      5.18043388485025      9.57131602224256
  C   7.49360600855038      2.74043693833038     11.06900095221425
  H   7.66778974745755      2.11662351132053     10.17766486866022
  C   6.64309940056974      1.92251042000160     12.06294427227230
  H   5.70124256439175      1.60054979411267     11.59952243017831
  H   6.42810420379723      2.50695737293723     12.96812519937975
  H   7.19983032192971      1.02482122201411     12.36250402884387
  C   8.84473423912133      3.16247645868577     11.67319334952768
  H   9.46965537053280      3.72045830016954     10.96398524157171
  H   9.39975327363630      2.26158899200301     11.96721587023697
  H   8.70058674407174      3.77115472701547     12.57490194612022
  C   7.55742656477280      5.29322278826952      9.46425318084334
  H   8.39025595654792      5.52769113039132     10.14593821327623
  C   8.13406325386508      4.59364318847253      8.21880317484676
  H   8.62139511910150      3.63918412575035      8.45762376188707
  H   8.88288015425530      5.24431849002044      7.74876335536418
  H   7.34416149303293      4.40816434204982      7.47966078703481
  C   6.82872436941725      6.59960762979380      9.10183365278905
  H   6.44115923311355      7.11029155377653      9.99215525914361
  H   5.98650866194018      6.39937815151494      8.42729809218612
  H   7.52772347547757      7.27668103762162      8.59279623994861
  C   1.15414787418563      2.45593242493765      8.58082322819811
  H   1.58085992419647      1.68452344165089      7.92137630096523
  C   1.12404122741265      1.89488030839967     10.01577976730850
  H   2.12338726870281      1.56304759429519     10.32596839777155
  H   0.44764291205429      1.03093845486328     10.05815512325320
  H   0.74709167452901      2.64722852651665     10.72418641122348
  C   -0.24791550631651      2.85604441567152      8.08335414840435
  H   -0.23636697785897      3.22755217476730      7.05047109274313
  H   -0.68671859615765      3.62849381225452      8.72846193952312
  H   -0.90758172685143      1.97866011817704      8.11329020993368
  C   2.31714421820393      4.53408059346804      6.76279686649695
  H   1.29551566217368      4.91911223956721      6.62182466384754
  C   3.31759702705167      5.69385481482175      6.60559569268370
  H   3.16824558312540      6.46743043341472      7.37001245117024
  H   3.19208031990923      6.15647792544196      5.61737572631546
  H   4.34847733278076      5.32653525532468      6.68894971329760
  C   2.55248227285327      3.41937137441968      5.72394966532488
  H   1.78949558415733      2.63363727399238      5.77606607317174
  H   3.53647385021605      2.95153548241912      5.85205560042202
  H   2.52023721868547      3.85332297215702      4.71618502370407
  O   5.99104084734232      1.80149547678449      6.84841107269846
  C   5.48657013786220      2.61753249560528      7.48007329387142
  O   4.48167917977398      1.60773190880436      9.62675084968139
