68
Coordinates from ORCA-job CEHXOG_1_1_tpss_d4_lanl2dz_631gpol_Fe2.opt
  Fe  4.54313920213862      3.80988682401920      9.35477539956137
  H   4.54138105526945      5.25174254012968      8.98387687480384
  P   6.48031179993077      4.26378017695143     10.35183440213955
  P   2.45503723062490      3.92094931423115      8.56358401074039
  P   3.61995603488324      4.48319136841143     11.26231563570437
  H   3.08178519518835      3.54059169025745     12.18363264453259
  C   6.16687468408843      5.27688020319699     11.86435524223693
  C   7.18115327201823      5.89171221182201     12.62158812534130
  H   8.21778641221309      5.84760416577590     12.29499111573417
  C   6.87049005847368      6.55482843262500     13.81411287537161
  H   7.66232503080516      7.03051138446413     14.38924927395190
  C   5.54915617680822      6.58829713212268     14.28165712252974
  H   5.31566918158981      7.08303611920914     15.22217138863504
  C   4.53022741536852      5.97687544925373     13.54403114419624
  H   3.51366755767397      5.97776854078885     13.93165277394900
  C   4.82938576816158      5.35045623833347     12.32101550981447
  C   2.14949662040484      5.49554426261098     10.85823224813056
  C   1.55871110982730      6.46284867008477     11.68577035454866
  H   2.00569094859255      6.72390121294054     12.64125178667825
  C   0.39546007016400      7.12021750423479     11.26927913819325
  H   -0.05300443469565      7.88114852835745     11.90468228994953
  C   -0.18926042743156      6.79920118243175     10.03747324934233
  H   -1.09607898926533      7.30769250565377      9.71626916374150
  C   0.39486458958945      5.83291750731212      9.20977897583044
  H   -0.06917289642177      5.60587413412693      8.25268375458816
  C   1.57563153765191      5.17683207632745      9.60216124613962
  C   7.18179989994692      2.65055580944743     10.97150432036931
  H   7.58859362008119      2.17809226685413     10.06358875812123
  C   5.98675827667351      1.80025743137069     11.44985813077873
  H   5.22175430549690      1.71338626556217     10.65362838232135
  H   5.50973580115047      2.24028861589681     12.33730981456589
  H   6.30752380714849      0.78187937569818     11.70684355424659
  C   8.29323805923133      2.76953518199916     12.02495056245199
  H   9.13487845492625      3.37250822249662     11.65850107825518
  H   8.68141412339349      1.77250779751306     12.27386068231212
  H   7.91481925317676      3.22693343901218     12.94796411452897
  C   7.85740035987014      5.17497281983395      9.49471380717763
  H   8.55717308831815      5.47143229469200     10.29140818683310
  C   8.63339879324632      4.29965325458508      8.49182687441224
  H   9.12330431454224      3.44800859125336      8.98064897990079
  H   9.41916636035137      4.90874173809528      8.02552395609749
  H   7.98923361839553      3.92056118250854      7.69130352254481
  C   7.29153289478939      6.45116061352643      8.83893092031492
  H   6.74610748950851      7.07182316762462      9.56225283512225
  H   6.60651100179715      6.19669663922187      8.02029368455444
  H   8.11402207646921      7.05001204820028      8.42618353292027
  C   1.44254053814052      2.35699202650582      8.71605347928375
  H   1.90030773661439      1.67024428898617      7.98657396396956
  C   1.63938334974130      1.76178350420971     10.12319161461875
  H   2.70509098519306      1.60223771176717     10.34579600830302
  H   1.12963406908652      0.79235673372312     10.19942728922363
  H   1.21802247418237      2.42254058968795     10.89447747828940
  C   -0.04783457998128      2.53715516698055      8.37824411703194
  H   -0.20051352470318      2.94082702306365      7.36897971785395
  H   -0.53435586326752      3.20726684293586      9.09891514229471
  H   -0.55605058690799      1.56460494388325      8.42695439142097
  C   2.15799840731270      4.52485656489038      6.82568827450867
  H   1.08465915428440      4.76491890945317      6.77918434856513
  C   2.95639731273014      5.81632657433342      6.56156482558424
  H   2.74806183072646      6.58434683114494      7.31789315150074
  H   2.68424265812175      6.22088645232117      5.57770522755670
  H   4.03473566522322      5.61827083165995      6.56293770119549
  C   2.43870330829659      3.43853777732501      5.76750270425212
  H   1.79801952731301      2.55778717059153      5.89986307148122
  H   3.48468536559131      3.11393779042513      5.78034681939785
  H   2.23218555510614      3.85128458013863      4.77109799411827
  O   5.77080112187805      3.32651226363009      6.74665045832930
  C   5.27933569315257      3.49652929127836      7.79483077700561
