70
Coordinates from ORCA-job CEHXOG-OH_1_4_tpss_d4_lanl2dz_631gpol_Fe2.opt
  Fe  4.49236065914123      3.20343816243006      9.40920201021138
  H   4.52027789503684      4.82217149126199      9.18286491017929
  P   6.37919831271158      4.13120695883224     10.41362513716617
  P   2.42719002953738      3.85730098099739      8.52025029982268
  P   3.39190551471883      4.07399857325863     11.51904396069083
  H   2.66607162658688      3.46315619232219     12.57964776905830
  C   5.94511065238347      5.11414472217436     11.90989555109283
  C   6.91614494246599      5.88280678134540     12.58108886931737
  H   7.91085647102653      6.00352194077489     12.15845445294180
  C   6.62198025120505      6.49523069614068     13.80447824670662
  H   7.38465291071385      7.08390335572197     14.31029673469572
  C   5.35872734624257      6.33113495883413     14.38704994437797
  H   5.13875301151815      6.77994829560901     15.35357658610007
  C   4.37754266828635      5.58850873307116     13.72239462553513
  H   3.40056709376075      5.45456317676765     14.18435136154000
  C   4.65000755089273      5.00146211560334     12.47200041613262
  C   2.16275609546104      5.30965788323853     10.91951621918183
  C   1.64121483879292      6.32570781071879     11.73766902366026
  H   1.99087500860136      6.43489477672869     12.76156300713102
  C   0.67905371812973      7.21290845622192     11.24398554679412
  H   0.28543578349987      7.99884668733232     11.88545669719676
  C   0.22293683713734      7.08387780931746      9.92652751062588
  H   -0.52796136402315      7.76896932335362      9.53790494195295
  C   0.73474539222464      6.07573755981230      9.10226683062870
  H   0.36938779628696      5.99539715871327      8.08096464155629
  C   1.71446724713553      5.18389142173145      9.57951853673749
  C   7.43588115217935      2.73789423091900     11.09411507460800
  H   7.59500047027934      2.07996453919670     10.22419090461138
  C   6.61820901232446      1.96768580428433     12.15262162489486
  H   5.63899043340145      1.66358935516382     11.76056720405495
  H   6.46637448576704      2.58474315187161     13.04805590430692
  H   7.16717639224915      1.06546229429366     12.45369105623823
  C   8.80235777866252      3.17722366689287     11.65075135040506
  H   9.41951393260729      3.69252668245880     10.90428792338959
  H   9.35461190305434      2.28706457731218     11.98129650131544
  H   8.67923912519397      3.83149603324693     12.52306814279941
  C   7.50974476797118      5.25854834852011      9.45601122195571
  H   8.30517698532168      5.54102589960603     10.16275762240836
  C   8.16916059817223      4.54995681400224      8.25730348835768
  H   8.63688128929000      3.59554006922593      8.53229447671094
  H   8.95060722829847      5.19792987021605      7.83935657409682
  H   7.43700617930265      4.36149435024842      7.46372421070591
  C   6.76136522912208      6.53290139512511      9.02354737112227
  H   6.31457616621974      7.05377631523727      9.87999668008277
  H   5.96101905086357      6.28914066360998      8.31334306420785
  H   7.46043467932602      7.22112439196470      8.52986054840238
  C   1.18784404764364      2.46110339191923      8.60016775441435
  H   1.61450368221304      1.67771466714724      7.95547041772381
  C   1.11550123263209      1.91670784696320     10.04014757341879
  H   2.09583216146623      1.56212300731936     10.38097900302856
  H   0.41406424678653      1.07234316498387     10.07739730784892
  H   0.74238992877438      2.68726425029493     10.73086987052719
  C   -0.20027377046691      2.87616981199201      8.07669473268966
  H   -0.16975510379500      3.23610954762911      7.04030987782772
  H   -0.63675088757222      3.66195259865889      8.70713044744411
  H   -0.87304514039063      2.00842756470999      8.10751522417333
  C   2.36296536513756      4.52824153976970      6.78687334285612
  H   1.35296142094853      4.94072774630444      6.64487084638775
  C   3.39328071983778      5.66220098780800      6.62902260328198
  H   3.26999521548879      6.43517070687425      7.39906504813750
  H   3.27936882813321      6.13541993909746      5.64465661883960
  H   4.41376434497416      5.26390421562371      6.70233309524422
  C   2.56656080759406      3.41123963646267      5.74342395024368
  H   1.77446889803395      2.65390680111754      5.78790999994803
  H   3.53061140775692      2.90539294163291      5.87354507457042
  H   2.55400688362065      3.85094274141257      4.73746410815566
  O   5.95912409830954      2.04356633373822      6.91276199087044
  C   5.43555594541412      2.83361490339739      7.57715330904906
  O   4.44524373671851      1.43269322605866      9.66795898561707
  H   5.18209678165936      0.82171795337455      9.46984404199129
