68
Coordinates from ORCA-job CEHXOG_1_3_tpss_d4_lanl2dz_631gpol_Fe2.opt
  Fe  4.38722689796388      3.22648100368911      9.69548744007358
  H   4.59193795927979      4.66389295544625      9.06244045086434
  P   6.32041945463927      4.14286538782029     10.38448460786329
  P   2.55480317779806      3.91477894596901      8.59307094977970
  P   3.45468622391288      4.14167414258034     11.54356147113248
  H   2.81201159528629      3.48659999131833     12.63134048159716
  C   5.99834895228573      5.19480302644753     11.85437741879540
  C   6.99763809540246      5.98197355087204     12.45650571608945
  H   7.98600979828678      6.05102148947311     12.00569336016461
  C   6.73042256564555      6.67265895023884     13.64388357891204
  H   7.50796002437368      7.27951111146994     14.10345973410347
  C   5.47124310429022      6.56757130967262     14.25174274740558
  H   5.27407208138633      7.08477960383372     15.18852578564077
  C   4.46678021644207      5.79671651125309     13.65657950059549
  H   3.49823497343613      5.70796462357901     14.14560435515969
  C   4.71428648142656      5.12935665654557     12.44343502889195
  C   2.11596541776503      5.28168046297174     10.98918778970281
  C   1.47647966057415      6.20020980689917     11.83813735809718
  H   1.76837874700812      6.27949518676554     12.88274569224191
  C   0.46340639497108      7.02949417079184     11.34438337486567
  H   -0.02220482572509      7.74449696029454     12.00547670540122
  C   0.07458099321776      6.93801219234902     10.00138059127839
  H   -0.71242958735960      7.58337217735445      9.61632222552265
  C   0.69462501179304      6.01510320928916      9.15146466748943
  H   0.37677909345259      5.95181587537477      8.11276651051585
  C   1.71970289565032      5.17986143762142      9.63352930956257
  C   7.35820595474775      2.72471514080494     11.03566601794182
  H   7.63292859537694      2.16264305190205     10.12901490635286
  C   6.45107992458645      1.83132131880081     11.90667586931544
  H   5.56632494779347      1.48897035511964     11.34523324267014
  H   6.10603593269400      2.37233637221891     12.79898728684598
  H   7.00400252616687      0.94307803977375     12.23956523266313
  C   8.63691010872067      3.13978787140066     11.78286438686535
  H   9.28568041997917      3.78532865312535     11.17669426692132
  H   9.21260645777743      2.23998072704450     12.03856607493398
  H   8.39645615316027      3.66123943545317     12.71794575150403
  C   7.40458401258865      5.14364970500329      9.25774091838082
  H   8.37914963926989      5.23738722173066      9.76201755127679
  C   7.60099974597828      4.39333068936235      7.92555274520981
  H   8.01854645261280      3.38827293966309      8.06644238432438
  H   8.29132943677905      4.95767903376179      7.28524564307188
  H   6.64287728444275      4.29699267345274      7.39855171664996
  C   6.81620906507307      6.54950357715726      9.03330175105256
  H   6.76469691125974      7.12808280234636      9.96280281421581
  H   5.80265418732689      6.48589873973309      8.61604551038956
  H   7.44514017207367      7.09824755471639      8.31981184305602
  C   1.37002649444821      2.46579112769111      8.51761630422767
  H   1.85507261586122      1.76503759795886      7.82042902976010
  C   1.30818393437152      1.79647054591976      9.90406476341951
  H   2.31127275591844      1.49567394100129     10.24585841084635
  H   0.68191814070765      0.89561060012261      9.85909473943816
  H   0.87140409914135      2.47266166386193     10.65326268351982
  C   -0.02734760473399      2.83411387247145      7.98909469476042
  H   0.01017327380087      3.26036205815694      6.97815463255729
  H   -0.52468886080353      3.55156505598694      8.65481183109564
  H   -0.64920718737201      1.92966458316862      7.94362048529260
  C   2.59898698651727      4.62432766714016      6.87815737836986
  H   1.56040026793670      4.90823079109930      6.64711108425310
  C   3.48386923978534      5.88206488147323      6.83356284550055
  H   3.20097935520853      6.61461210879289      7.60093696253578
  H   3.39362558209750      6.36247305256214      5.85027782265553
  H   4.53544706030885      5.60846081524273      6.98577044586983
  C   3.05926857740384      3.57334686725669      5.84912422300130
  H   2.39310344891135      2.70228833277310      5.81453830621576
  H   4.07594724171905      3.22499310152952      6.06690511261842
  H   3.06535318095827      4.02721832598920      4.84943732390639
  O   5.56140882497146      1.49863713906035      7.59155758158807
  C   5.08211924123035      2.15525922824904      8.42970057317768
