69
Coordinates from ORCA-job CEHXOG-oxo_1_1_tpss_d4_lanl2dz_631gpol_Fe2.opt
  Fe  4.48807477436380      3.49387617664627      9.40162004633251
  H   4.53758538642526      5.06555760435652      9.14822656993516
  P   6.44228727971163      4.12326636142874     10.35815815075147
  P   2.44550727775693      3.94643937998232      8.52834810868262
  P   3.56883675190081      4.20730982963709     11.32975530050395
  H   3.08266664338236      3.26565388544037     12.27168305761669
  C   6.07085167568345      5.25965637638523     11.75297324485556
  C   7.04330046682633      6.04720034548831     12.39509882646141
  H   8.04839113077914      6.12805190783039     11.98732245272859
  C   6.73036972490097      6.72873915482820     13.57706600447030
  H   7.48622702659813      7.34285863678670     14.06203917586965
  C   5.45861062447815      6.59952962083396     14.15081733446421
  H   5.22851410313212      7.10208823337961     15.08799474123569
  C   4.48079724980508      5.82370712407716     13.51954322625105
  H   3.50530082497792      5.71435002855583     13.98751814750311
  C   4.77004422696335      5.18438413566926     12.30108282114705
  C   2.09556692133299      5.23738768421866     10.96792247947203
  C   1.43450353948279      6.05121979002969     11.90291970394039
  H   1.78795588761449      6.12159466916712     12.92755550836324
  C   0.31446321130829      6.79549001750654     11.51647723146341
  H   -0.18629456554320      7.43383364997813     12.24144046392477
  C   -0.15839616742852      6.72058133482710     10.20044523283004
  H   -1.02634367575839      7.30339080438223      9.89893933956400
  C   0.47994938037165      5.89310979955713      9.26948895583465
  H   0.09129502354072      5.84005438777190      8.25516086686532
  C   1.61091766679404      5.14503520983521      9.64299484486802
  C   7.28948051958191      2.68112119436472     11.19240363198715
  H   7.47665342258565      1.97062341785079     10.37237002075407
  C   6.33005587700189      2.01826932548994     12.20030471033453
  H   5.40832497822514      1.68470415728131     11.70740985706630
  H   6.08472293931736      2.70793793573168     13.02013537272631
  H   6.81895216062945      1.13790328625512     12.63806796122559
  C   8.62139164110338      3.06708826226932     11.86597084633269
  H   9.33347536487474      3.53351977923891     11.17408068795103
  H   9.09244090007839      2.15909614840658     12.26515251533564
  H   8.44980664486993      3.74958339007634     12.70842485587095
  C   7.74508670666460      5.00453512590982      9.36608354288847
  H   8.44964829739473      5.37431141062989     10.12769470635299
  C   8.53212787422989      4.07427270140376      8.42084400835346
  H   8.97904011874014      3.22384370573317      8.94963131861324
  H   9.34831816388743      4.64803498917176      7.96257253057537
  H   7.90568299584411      3.68684349700267      7.61216524327658
  C   7.14850382907152      6.21814793841168      8.62866822797768
  H   6.58402134292298      6.87088527122947      9.30725816204275
  H   6.47445463738747      5.89629324178764      7.82578025149541
  H   7.95892583232921      6.80713685014437      8.17922790789549
  C   1.32753156625671      2.45163171268660      8.53845925388112
  H   1.84104086684190      1.72525896656316      7.88999352225291
  C   1.25311503903778      1.86474704628376      9.96073071363893
  H   2.25170595893091      1.59328314669177     10.32560716001275
  H   0.63730617378386      0.95569957921557      9.94597420914489
  H   0.78172344294175      2.57522838931212     10.65528512596773
  C   -0.07943763468713      2.74957385715442      7.98246487233254
  H   -0.06025708756185      3.15632916012572      6.96385849227120
  H   -0.61613074221403      3.45289287553803      8.63233852817864
  H   -0.65594125021491      1.81544028371124      7.95593543383033
  C   2.30233981648536      4.70293680282486      6.83565699119747
  H   1.25565256950914      5.04153007126067      6.78356504871275
  C   3.21647428207531      5.93528128118910      6.70371607823308
  H   3.07416028854730      6.63946764535306      7.53372472196279
  H   2.99298169082194      6.45846221988473      5.76468698422312
  H   4.27189555652824      5.63897686590537      6.68542440678831
  C   2.51612389140445      3.68407272851543      5.69684702601211
  H   1.83028104025569      2.83176160984695      5.77022189781167
  H   3.54090348661039      3.30118014831117      5.67363650851041
  H   2.32707961725113      4.18329113351447      4.73752109011612
  O   5.72167880828799      3.10502091664395      6.75279905540425
  C   5.23558943972823      3.25687955557577      7.79551063369992
  O   4.38498654323899      1.84333622690289      9.76860405082502
