74
Coordinates from ORCA-job CEHXOG-CH3OH_1_3_tpss_d4_lanl2dz_631gpol_Fe2.opt
  Fe  4.54970850596839      3.30338532626514      9.55439935102065
  H   4.58190950320437      4.82119683697026      9.11077870594955
  P   6.38006123478288      4.39525426033571     10.34829903348775
  P   2.65877544377096      3.96149873025056      8.48029119173716
  P   3.48879931722657      4.10554032965155     11.45621863627422
  H   2.71606011909131      3.51375420440144     12.50614627046169
  C   5.97630972025516      5.23720608016241     11.93284801490314
  C   6.90965807876707      6.02417689806935     12.63287356634373
  H   7.88935321653513      6.22608399367806     12.20506799780309
  C   6.58750566858847      6.55377004791791     13.88821242620099
  H   7.31777834914734      7.15736914875089     14.42355952561743
  C   5.33511403811812      6.29514529974155     14.46188968728862
  H   5.09560295035943      6.68650968201193     15.44865553183947
  C   4.38805266002190      5.53879181814308     13.76217163550953
  H   3.41632649987324      5.33867958872647     14.21180366270721
  C   4.69366553322203      5.02777088779716     12.48750094690245
  C   2.27504841885452      5.36408993519900     10.85599843863009
  C   1.71915072504150      6.34793874886807     11.68819689209951
  H   2.01182045876296      6.40931484800418     12.73417688703091
  C   0.79936711015322      7.26980300902149     11.17379664083574
  H   0.37908572009273      8.03600295945927     11.82232430019875
  C   0.42405063788292      7.20630177570043      9.82619960569902
  H   -0.28823561581670      7.92392497315302      9.42362132392671
  C   0.96639949816904      6.22198053890263      8.99056576103091
  H   0.66490874295148      6.18821669118564      7.94558754894546
  C   1.89979396129770      5.29730825554887      9.49257412570481
  C   7.66796061445974      3.10855346096243     10.80552252622117
  H   7.82077277693354      2.55608739184454      9.86496278055873
  C   7.04953168747214      2.14586388439370     11.83888183078218
  H   6.11153833335438      1.71453068055938     11.46624535045592
  H   6.84942974605346      2.66567693624492     12.78590525450710
  H   7.74975494078865      1.32466171196916     12.04292156543958
  C   9.02026934244677      3.66090514940895     11.28918067245974
  H   9.49520038032844      4.32154406985291     10.55324006318772
  H   9.70365363716887      2.81917613374584     11.46649825399996
  H   8.91176132809136      4.20261909801301     12.23719704326683
  C   7.27515277628374      5.69906785138438      9.37086805355248
  H   8.16052902753682      5.95354229947811      9.97498836207662
  C   7.74968106104834      5.15001457518566      8.01242765195245
  H   8.36945997887931      4.25034869130910      8.11865330757397
  H   8.34908253040865      5.91327979766601      7.49889414631571
  H   6.89530783372401      4.90145847743211      7.37240900073714
  C   6.41406902685492      6.96492187849402      9.21358389634616
  H   6.12871548558712      7.38748849326281     10.18485464329929
  H   5.49841859443476      6.74708929723967      8.65054839330248
  H   6.98178670631573      7.72601761446400      8.66152864017658
  C   1.32000715079381      2.63899544195528      8.43296173006851
  H   1.78418991606976      1.78893457178962      7.90919190606387
  C   0.95834568432738      2.20151008858191      9.86385172541481
  H   1.84405102079993      1.84591548094957     10.40326083988299
  H   0.22354417994164      1.38591542615826      9.83084945453540
  H   0.51498575288745      3.03255892747802     10.42874081292382
  C   0.05669642475150      3.08533455319482      7.67110088919880
  H   0.25965274610707      3.33255297462973      6.62261198583497
  H   -0.40654895635544      3.95516602409775      8.15559758494593
  H   -0.67753466654049      2.26804929365755      7.68245556857034
  C   2.72350431292282      4.62115694560706      6.74236155582295
  H   1.71844094600735      5.01829612206964      6.53222209236637
  C   3.74003098010252      5.76885141778671      6.63584664414877
  H   3.52617630715024      6.56833046135737      7.35747687448993
  H   3.70981744707242      6.20043283850192      5.62631871340789
  H   4.75513647150057      5.39686330309163      6.82172754585532
  C   3.02090840100549      3.50134065523527      5.72321085699005
  H   2.28628753856183      2.68787720770607      5.77200599677207
  H   4.01869279070509      3.07694879819890      5.87574333543101
  H   2.98567806970338      3.92102110711940      4.70916462475907
  O   6.05845355012340      2.30568922996417      7.18524253107172
  C   5.43993917034411      2.59921805678207      8.13589144511814
  O   4.18250137585586      1.16082691633070     10.30635252749607
  C   4.15663477079276     -0.08211537240767      9.55561899359556
  H   4.75068780646492      0.10334630274929      8.65881759874893
  H   4.61010269242849     -0.89007559132888     10.14152572321584
  H   3.12850250093046     -0.34360637474877      9.27547818785179
  H   3.67549931105204      1.04720283266473     11.13661311105599
