102
Coordinates from ORCA-job CAZHIW-CH3OH_0_2_tpss_d4_lanl2dz_631gpol_Co2.opt
  Co  9.67225257199901      4.90300468429298      4.48960148137453
  O   8.47949136059428      5.77721611926104      5.85854089280964
  O   10.82553250605627      4.55720950207822      2.96863465344472
  N   9.92011477094455      3.64844869408179      6.12626050953491
  N   9.49682356364054      4.23471956570148      7.28922299140365
  N   8.51348571928041      3.66880109824964      3.55166351521389
  N   8.94624686266196      3.39646708958521      2.26644522405646
  N   11.11541002711100      6.00151232240060      5.20171129086676
  O   8.69253181482984      6.58632647524593      3.27634792523326
  C   8.81157030613373      5.34980651275176      7.05409233849423
  C   8.35370628537164      6.11959497933589      8.23211334143727
  C   7.58177261635588      7.28234455053890      8.05126462811524
  H   7.33985768433375      7.59870479741715      7.03860940617272
  C   7.11841455761620      8.00185481029997      9.15837861177510
  H   6.51796710543069      8.89872112605405      9.00979926900469
  C   7.42350907494044      7.56756394370707     10.45608007117233
  H   7.06239753429535      8.12691907771409     11.31829632107107
  C   8.19186317609388      6.40658140272476     10.64039692926041
  H   8.42481822038627      6.06277775955229     11.64743138860451
  C   8.65250338496597      5.68329637492843      9.53845422956906
  H   9.23294582890092      4.77253003101175      9.66183428204859
  C   10.25492733287939      2.36457613618894      6.16099005680289
  C   10.07542114560982      1.50861781388950      7.35695256403430
  C   11.09135099467761      0.60937244960089      7.73952527937838
  H   12.01241518089977      0.56749003397497      7.16033179255742
  C   10.93113655524357     -0.20770422092221      8.86431619125484
  H   11.72932533330904     -0.89016661802208      9.15419438004411
  C   9.74896365789543     -0.14717391594459      9.61451557015583
  H   9.62258421789718     -0.78737666036201     10.48701135180955
  C   8.73070615643522      0.74100160877186      9.23773434800868
  H   7.80391565076391      0.79497198939057      9.80724741171571
  C   8.89394931284808      1.56813077053657      8.12405976972098
  H   8.10587493756784      2.25301558373457      7.83495483904866
  C   10.76924433791032      1.84763749716416      4.91198760716477
  H   10.99508405211350      2.62153377470183      4.17809619229799
  C   10.87723968438785      0.53440820588197      4.56429778246208
  H   10.56241532308676     -0.23125975988712      5.27519510794302
  C   11.30035177839010      0.05784569593333      3.25050744169693
  C   11.06649645894106     -1.29154526594740      2.89737270310533
  H   10.61345472810549     -1.95844000093393      3.63139497824828
  C   11.38432035964565     -1.76739925686601      1.62192730289584
  H   11.18851592291334     -2.80899235436968      1.36924200244353
  C   11.95057391067679     -0.90662711426476      0.67090838880383
  H   12.19370984956429     -1.27433867134949     -0.32502490241187
  C   12.20669592436437      0.43112228007731      1.01100700478924
  H   12.64431307041134      1.10995234144541      0.28135927890543
  C   11.89182799410555      0.90533391862932      2.28400579624668
  H   12.10145820713937      1.94361753381986      2.53033302554344
  C   10.14176465034313      3.91404817318622      2.05306985473163
  C   10.76014560940872      3.71238279812550      0.72554027335934
  C   12.04736648981513      4.22203134377903      0.47442905880224
  H   12.55250264884097      4.77624826733407      1.26256901543460
  C   12.65926473720948      4.00749234713295     -0.76543174493356
  H   13.65685701331530      4.40289242587387     -0.95381537399014
  C   11.98906179838776      3.28730172907248     -1.76502748590852
  H   12.46486482403771      3.12194478665577     -2.73099688434271
  C   10.70339034809996      2.78022872950461     -1.51757775275181
  H   10.18209015047001      2.21744084212909     -2.29087631806996
  C   10.09021408618183      2.98713869409296     -0.27990691554105
  H   9.10154771401224      2.58919735883347     -0.06575930462788
  C   7.47265329407221      2.94173342589127      3.96208418847233
  C   6.93340111499026      1.82008298723666      3.15213602024743
  C   7.78299443995316      0.84195505534463      2.59682428920574
  H   8.85441406641254      0.92456853226263      2.73787968600131
  C   7.25058245512282     -0.23040526487071      1.87825801116204
  H   7.92283818603396     -0.98113435512135      1.46484320136991
  C   5.86413091362224     -0.33671984180224      1.68861818999176
  H   5.45157200949907     -1.16965183184886      1.12019692462628
  C   5.01193702338268      0.63244349833584      2.23295577701790
  H   3.93487397450967      0.56021553319581      2.08656497859457
  C   5.54239550252084      1.69992152193801      2.96727432635135
  H   4.88234804492008      2.45573400105713      3.38948317229924
  C   6.90307983385188      3.26701274384425      5.24362181429230
  H   7.20335991176970      4.23730631910923      5.62655460559397
  C   6.10172628178737      2.45131147950950      5.98754164458248
  H   5.86585990320903      1.45152799228229      5.61950609416151
  C   5.60867639574703      2.78345460151433      7.32080704660607
  C   5.67379247019076      4.09392825935321      7.85075677264800
  H   6.03040212587540      4.90994506038684      7.22755680582522
  C   5.28893267088859      4.35754642058585      9.16468747330357
  H   5.37304047234837      5.37187632410613      9.55118681545641
  C   4.80762008771155      3.32192442303370      9.98148405618352
  H   4.50801966572765      3.52781812699923     11.00818525410015
  C   4.70846909943202      2.02167321087493      9.46515517803527
  H   4.32673274468097      1.21379981335590     10.08869432105980
  C   5.10245335535046      1.75588621414152      8.15028250620692
  H   5.04204346914278      0.74089715611618      7.75695144282503
  C   10.93810964442835      7.18815055804700      5.82887821617794
  H   9.90786699259558      7.51995359499662      5.91316445195619
  C   11.99931012926732      7.91962278043717      6.36221356290899
  H   11.79865193923476      8.86531079417687      6.86031355864628
  C   13.29844165924741      7.41244616352296      6.25346007081315
  H   14.14578344816689      7.95651165425838      6.66643570097989
  C   13.48215798449413      6.18457557752537      5.60639583007167
  H   14.47044398503297      5.74330714559911      5.49992427666537
  C   12.37434784990030      5.51122859285817      5.09387667733831
  H   12.45949902745893      4.56267684334456      4.57538220705189
  C   9.48898777168754      7.60379689122336      2.64730164108175
  H   10.21505240614401      8.04815673156681      3.34386346338972
  H   10.03100954692217      7.10155944715100      1.84248394299563
  H   8.84961085108961      8.39257308164323      2.22487072619616
  H   8.27331013172782      6.93738652929203      4.09074609001496
