96
Coordinates from ORCA-job CAZHIW_0_2_tpss_d4_lanl2dz_631gpol_Co2.opt
  Co  9.63288792825358      5.00453980234040      4.48428361587221
  O   8.50010685214947      5.85961100789254      5.82631417256931
  O   10.71320505646949      4.73252848211872      2.94554454274201
  N   9.87935795352584      3.71247571113826      6.07214115909986
  N   9.45878247331051      4.27335844426045      7.24955687995827
  N   8.41736034629221      3.84334027348007      3.51251494629124
  N   8.85029524365789      3.55977696341845      2.22556002601827
  N   11.07070859673935      6.12515526812579      5.15130976912568
  C   8.79469989485422      5.40239515704525      7.02035277808454
  C   8.30741173089830      6.15627241325636      8.19576348606745
  C   7.55611066182134      7.33176673323708      8.00897971050887
  H   7.35526585883635      7.66985571261669      6.99444441936812
  C   7.06515917097099      8.03597678449087      9.11385303789254
  H   6.48138954477220      8.94328726414164      8.96250740508972
  C   7.32368973784275      7.57524168802154     10.41291446784163
  H   6.94238048826187      8.12455072247449     11.27296474961819
  C   8.07243453502135      6.40252272044214     10.60174098278438
  H   8.26937514200679      6.03900368904342     11.60951069978964
  C   8.55970313632560      5.69281626555223      9.50223051162567
  H   9.12591714779120      4.77346375091362      9.62815421843736
  C   10.22017649375607      2.43033010977686      6.07652293973941
  C   10.05001930533390      1.55058353132690      7.25717195389852
  C   11.07525596333478      0.65661225576646      7.62537553290164
  H   11.99828150336290      0.63633316650539      7.04811041101088
  C   10.92135813184138     -0.18360748431391      8.73400502791016
  H   11.72658424970888     -0.86192052081781      9.01376306748191
  C   9.73646882094786     -0.15074152435415      9.48135888583738
  H   9.61543303890096     -0.80781319448958     10.34193403714991
  C   8.70816108531467      0.73133711940511      9.11744611607589
  H   7.77979812503734      0.76341291033482      9.68616985680909
  C   8.86432082376011      1.58070733235364      8.01964120328989
  H   8.06858947715375      2.26126458272646      7.73973343459760
  C   10.72785304551092      1.93731548373049      4.81551311678618
  H   10.95543709213576      2.72322215657074      4.09493712678324
  C   10.83484459459289      0.62980631108702      4.44635772524301
  H   10.52176518397250     -0.14569261985834      5.14725006547969
  C   11.25148191480270      0.17252903107575      3.12404402586661
  C   11.00747053032865     -1.16936847011689      2.74975858949594
  H   10.55178980940739     -1.84496355286911      3.47413158340238
  C   11.32034549988270     -1.62652149105801      1.46630505152934
  H   11.11744940434173     -2.66253364455215      1.19697012317034
  C   11.89173653546289     -0.75430962409159      0.52885222344235
  H   12.13184715335984     -1.10777459517212     -0.47293248634214
  C   12.15802203941123      0.57584576716378      0.89014582407973
  H   12.60024090046018      1.26342041854425      0.17176398916365
  C   11.84770949415882      1.03142357252763      2.17095647878860
  H   12.06678065022181      2.06364939613836      2.43393275227374
  C   10.04435893424384      4.07757528175072      2.01837665640893
  C   10.68305085582531      3.87896472532850      0.70221499682944
  C   11.97535814687973      4.38534381524976      0.47131714589698
  H   12.47074475463703      4.93766436744618      1.26669597086668
  C   12.60219115544457      4.17315826370251     -0.76131374345109
  H   13.60286541452452      4.56700271503981     -0.93541474271481
  C   11.94240168118693      3.45994247066068     -1.77283184081124
  H   12.42997697579180      3.29821957095888     -2.73349809781488
  C   10.65222596677252      2.95534878928180     -1.54462659313657
  H   10.13921417555316      2.39761732999129     -2.32696666244811
  C   10.02403563015052      3.15867439548627     -0.31414577419319
  H   9.03140797475661      2.76268036260208     -0.11515695577015
  C   7.38099412453995      3.11088354072440      3.92909313079543
  C   6.85239194838832      1.97578887249437      3.13167440671255
  C   7.71108950027034      1.00428214886747      2.57789837762699
  H   8.78229203785148      1.10060930540734      2.71093036768466
  C   7.18769427888036     -0.08158132718720      1.87339566187544
  H   7.86711821401447     -0.82694804867856      1.46223657684630
  C   5.80140850008502     -0.20756044672180      1.69494021744574
  H   5.39581316292930     -1.05082130363815      1.13689562789566
  C   4.94011358702485      0.75500849649923      2.23679643981257
  H   3.86321809938426      0.66739931493292      2.09858236354634
  C   5.46143471706325      1.83533142408558      2.95842888968666
  H   4.79430732086179      2.58584052693504      3.37888744764792
  C   6.80639475621953      3.44205990391327      5.20766130868144
  H   7.07903348027415      4.42484497588651      5.58000200297584
  C   6.03572303971128      2.60574232792110      5.96131604397536
  H   5.83195512476578      1.59719497547537      5.59800954408559
  C   5.53355657717562      2.92262069957705      7.29426303925950
  C   5.56328939019028      4.23188352283933      7.82919538770485
  H   5.90634318855798      5.05946195747356      7.21378245105230
  C   5.15942808864720      4.47960117487317      9.14047966310942
  H   5.21336607477298      5.49372107827208      9.53215560799226
  C   4.69877576491866      3.42831690369220      9.94902549352251
  H   4.38537177301453      3.62273051060413     10.97381893458224
  C   4.63800684570764      2.12754415104876      9.42823754076912
  H   4.27247013227487      1.30779680787285     10.04579647327047
  C   5.04814747845776      1.87816754037684      8.11541074309643
  H   5.01437625719241      0.86429576741300      7.71596917928774
  C   10.87495101423102      7.36870926684150      5.64790356346389
  H   9.83991366111512      7.69453930180410      5.68419446955769
  C   11.92977444986423      8.15801986712520      6.10674635863711
  H   11.72287548664423      9.15080285097188      6.49924106943721
  C   13.23278039333148      7.65063190108474      6.05697452497062
  H   14.07387005048003      8.24240927508589      6.41323462593201
  C   13.43166807725297      6.36400856599746      5.54176582555708
  H   14.42438545423608      5.92344875915255      5.48650955568812
  C   12.33120878645633      5.63343486772191      5.09671961631645
  H   12.42556513114249      4.63550317840593      4.68161687518585
