98
Coordinates from ORCA-job CAZHIW-OH_0_1_tpss_d4_lanl2dz_631gpol_Co2.opt
  Co  9.55332344515085      5.10515132592532      4.45613317890481
  O   8.48480252636680      5.87321024816257      5.85717715587263
  O   10.74189029948758      4.64120043621078      3.04481483259743
  N   9.92200193950790      3.76456941708973      5.90503576010548
  N   9.56794099812936      4.26658693729307      7.14084364952839
  N   8.38292985915887      3.84336270296200      3.53753298666882
  N   8.85218368480002      3.53411226101900      2.28082086765467
  N   10.96476672794195      6.24843804827997      5.14125052107161
  O   8.94276935101599      6.49987593258989      3.40202616544495
  C   8.84627622594144      5.36867946282912      7.01053792732398
  C   8.37149483700512      6.03728806919306      8.23933108012947
  C   7.66328002094002      7.24927368402122      8.14095916946149
  H   7.49282163909047      7.67808260519535      7.15587633668903
  C   7.18461019564485      7.87558646533277      9.29651654513892
  H   6.63700079427676      8.81391804564026      9.21684903689119
  C   7.41170954282626      7.29863961507979     10.55485883502633
  H   7.03914219024914      7.78770069174772     11.45425446737614
  C   8.11776067203738      6.08932860066373     10.65331190352339
  H   8.28877519468512      5.63670179896435     11.62912700709600
  C   8.59575818514352      5.45774064440263      9.50329191059453
  H   9.13073179798385      4.51287433283563      9.55816091483416
  C   10.26907160101411      2.48134170157795      5.87841291423599
  C   10.12904656310178      1.60658853718131      7.07039098332959
  C   11.18682658927405      0.75563930501347      7.44435228632003
  H   12.11125394644429      0.76919782583324      6.86919478581120
  C   11.06146469226923     -0.08812170452671      8.55444348423345
  H   11.89205418413528     -0.73225033836532      8.84018714001718
  C   9.87191193584030     -0.10202411544216      9.29405902300729
  H   9.77290122131881     -0.76066121137000     10.15613319939080
  C   8.80865190856832      0.73408009329495      8.92032293238610
  H   7.87673041296023      0.72792022559341      9.48403113807055
  C   8.93649471623920      1.58732300230180      7.82236578457000
  H   8.11340982719152      2.23229796067755      7.53510146929237
  C   10.76427234754892      1.96126832937628      4.62700662062665
  H   11.04973503161827      2.71844409713612      3.90186242882329
  C   10.81932028301782      0.63854346960583      4.29948157036372
  H   10.44808075695208     -0.09798183716508      5.01388948343865
  C   11.25211185210269      0.11997137924429      3.00628483726383
  C   10.89664278504865     -1.19883333668712      2.63858878885872
  H   10.33793394298644     -1.81213256475544      3.34596865921087
  C   11.23125426165673     -1.70854471703910      1.38107767616795
  H   10.94101962371112     -2.72397879125649      1.11385769298868
  C   11.93977392370884     -0.91494058237426      0.46753117111562
  H   12.19997958493470     -1.31008759503915     -0.51340722122567
  C   12.32010042711345      0.38769070482327      0.82625935531669
  H   12.87186787080879      1.01144287750291      0.12599730513607
  C   11.98550494798807      0.89725422630905      2.08042746928444
  H   12.29924125237558      1.90339469431276      2.34729496589770
  C   10.06923139240424      4.00624582967369      2.10381063546414
  C   10.73871849174583      3.77038024811283      0.81032290312579
  C   12.04219221317953      4.25745074953171      0.60027883170009
  H   12.52852787057336      4.81678482586398      1.39646125398476
  C   12.69170082345268      4.01880132409387     -0.61551231844787
  H   13.70002631092406      4.39882063951764     -0.77509970240402
  C   12.04322201563225      3.29946754434966     -1.63001150587675
  H   12.54767568559362      3.11893919188649     -2.57853163754946
  C   10.74281138927376      2.81337710677773     -1.42141119657995
  H   10.23897322725816      2.25131246638336     -2.20647966784358
  C   10.09132735638240      3.04313895999068     -0.20819525323364
  H   9.08878612748676      2.66512535253004     -0.02472283675044
  C   7.32574996284758      3.15473283985223      3.95125610287430
  C   6.77052559990507      2.02180434745458      3.16640802126367
  C   7.60217825371769      1.01955279306519      2.62705696461641
  H   8.67555290354312      1.08435203344742      2.76473681726670
  C   7.04852719664729     -0.05660773443836      1.93011643558779
  H   7.70601425453178     -0.82592473747645      1.52721516714489
  C   5.66010972363072     -0.14226284316228      1.74677617857731
  H   5.23160867056778     -0.97807384879383      1.19481243677064
  C   4.82609141301783      0.85107303956918      2.27583931659560
  H   3.74770260394894      0.79483171629415      2.13368196251855
  C   5.37666018296380      1.92229861353548      2.98886465806953
  H   4.73166121591354      2.69706586838669      3.39921273760487
  C   6.74742946827836      3.52294893098991      5.22127538265738
  H   7.01475733884005      4.51579646667145      5.57047037314319
  C   5.99029512843994      2.69334277565283      5.99359575726755
  H   5.79709268934006      1.67611117935741      5.64816964185959
  C   5.49583027413373      3.02301414265832      7.32707536745490
  C   5.47830936499017      4.34456202237586      7.83096524379721
  H   5.77697386555417      5.17113993989055      7.19084499892808
  C   5.08006035287095      4.60356072947982      9.14200795128611
  H   5.09395996571555      5.62695001729107      9.51160846515531
  C   4.67644549670263      3.55248438386134      9.98036777389450
  H   4.36847165872505      3.75746324240357     11.00473379570551
  C   4.66383758677809      2.23883806306267      9.49038929346127
  H   4.34129201550869      1.41884873911598     10.13109243268984
  C   5.06480599599202      1.97802023600714      8.17692794648417
  H   5.06455603095196      0.95539959900935      7.79856202138870
  C   10.70292567918189      7.56165775765966      5.31250908417899
  H   9.70165287513102      7.85773039810726      5.01329870067099
  C   11.67742207268471      8.43281325102768      5.80307745879618
  H   11.43630989387500      9.48444062496128      5.93981538626329
  C   12.94918474787722      7.93364322839853      6.10678347961502
  H   13.72567926495834      8.59350598566588      6.49010266604361
  C   13.20902013357529      6.57207437850550      5.90900509848868
  H   14.18307165520159      6.14165211012879      6.12885818980078
  C   12.18645649322842      5.75550955261844      5.42503155520037
  H   12.31600098498676      4.69079579032019      5.25733104228008
  H   9.56385746402286      6.50092716713208      2.64228839314356
