97
Coordinates from ORCA-job CAZHIW-oxo_0_2_tpss_d4_lanl2dz_631gpol_Co2.opt
  Co  9.54994874998341      5.10841737225275      4.43432595663877
  O   8.48069701868366      5.87059282142427      5.84961902460704
  O   10.77506059178368      4.59346325409207      3.07056445971697
  N   9.92572335849084      3.75547042606161      5.92762364452111
  N   9.57098593010876      4.27826079091471      7.15444913824472
  N   8.39658194872340      3.83726512230596      3.51006386075608
  N   8.86499020833468      3.57240080697390      2.24735359895984
  N   10.96302209895918      6.25510380316004      5.13149066122562
  O   9.00658418660800      6.38454689311493      3.37347832806328
  C   8.85055249672538      5.37806093701503      7.00837717961940
  C   8.37861233528576      6.06398083745188      8.22930109057628
  C   7.65840244387551      7.26769408388665      8.11758645261250
  H   7.47723287597446      7.68044717071790      7.12762815484082
  C   7.18131076145206      7.90709443412796      9.26674695232887
  H   6.62367932298164      8.83849193861899      9.17637851687544
  C   7.42282632416522      7.35228583207491     10.53220016503621
  H   7.05171604329704      7.85167334705559     11.42647096599928
  C   8.14173401014820      6.15164082781316     10.64427871573750
  H   8.32452798557584      5.71616688160258     11.62575098937060
  C   8.61683979864280      5.50630769236047      9.50078924767697
  H   9.16056206934183      4.56719935966968      9.56629044763789
  C   10.26246891137473      2.47029674007982      5.92050193868450
  C   10.13212065859735      1.61305818954811      7.12608571919717
  C   11.19186235638980      0.76575505429884      7.50275885149585
  H   12.11133915050452      0.76926201381278      6.91951717404970
  C   11.07463519533534     -0.06096356120208      8.62647954725951
  H   11.90638168778518     -0.70245136259756      8.91473673642919
  C   9.89112425165531     -0.06204173463873      9.37597517092687
  H   9.79833641925355     -0.70816334978230     10.24815846793512
  C   8.82596350909436      0.77023655600322      8.99940957576135
  H   7.89832112253873      0.77311569115305      9.57006298671373
  C   8.94616093557019      1.60766605257270      7.88838254803137
  H   8.12175622242537      2.24937045005359      7.59830362571846
  C   10.73255389717619      1.93058407748708      4.66729419758486
  H   10.98837866551617      2.68053536699789      3.92357793506070
  C   10.79130216588837      0.60397356763550      4.35798181257334
  H   10.45367204941145     -0.12743373371706      5.09404176725049
  C   11.18763105784711      0.07294186822524      3.05773139511796
  C   10.86244833570780     -1.26419929745914      2.73126374037001
  H   10.35696976407010     -1.88179130651972      3.47398357624850
  C   11.15863521659800     -1.78780069697648      1.46970970942771
  H   10.89315199516516     -2.81798780969922      1.23531333746830
  C   11.79601235706368     -0.98866504497648      0.50961519582940
  H   12.02540732003195     -1.39455121924303     -0.47460428968205
  C   12.14406736922623      0.33420414630000      0.82520818096875
  H   12.64058276923285      0.96314812446433      0.08904696780955
  C   11.84897938873039      0.85695795073821      2.08393762278188
  H   12.13576129568108      1.87979831254505      2.31450823984577
  C   10.09197254999183      4.03360642626436      2.09639242710383
  C   10.76512761286117      3.83080099765493      0.79956122111787
  C   12.07402250588490      4.31124192112254      0.61120680558059
  H   12.55532764100399      4.85246844292386      1.42254611264024
  C   12.73132210779153      4.09248403174903     -0.60400778972190
  H   13.74419304198678      4.46675550735985     -0.74740541308152
  C   12.08452191788447      3.40236072744837     -1.63974231187227
  H   12.59531832982835      3.23870538927568     -2.58797886908231
  C   10.77678151841850      2.92629384632246     -1.45408622864158
  H   10.27327271428423      2.38922448932001     -2.25674235144400
  C   10.11885616125416      3.13311994533166     -0.24010543516785
  H   9.11112637768728      2.76124686746390     -0.07360557814223
  C   7.34925945072137      3.13128925113705      3.92314184734445
  C   6.80245422196086      2.00704330067382      3.12169830773419
  C   7.64418431358840      1.02977525735245      2.55309256029229
  H   8.71775836703666      1.10975882780218      2.67769242703750
  C   7.10032590002202     -0.04323585146209      1.84384486580108
  H   7.76600946057392     -0.79434739465019      1.42083561795147
  C   5.71138074224753     -0.14877266068894      1.67562150209154
  H   5.29003236577332     -0.98143012777506      1.11347424816390
  C   4.86726561333649      0.82082281047632      2.23208861975873
  H   3.78841788960688      0.74941211252943      2.10081364183794
  C   5.40822026388938      1.88790425452409      2.95845811209988
  H   4.75508689553757      2.64424519075989      3.38977269459467
  C   6.78040232150940      3.47485292853797      5.20326125843377
  H   7.05313286706885      4.46048768698802      5.56866152009728
  C   6.02204396625332      2.63860814538398      5.96736648217238
  H   5.82023601572397      1.62743598671981      5.60957751642358
  C   5.53451165363445      2.95662680468882      7.30613894963774
  C   5.54122665532219      4.27105986819120      7.82885471994592
  H   5.85298558257677      5.10171869184579      7.20047132700657
  C   5.15121531657850      4.51894135951951      9.14449848531899
  H   5.18486946096951      5.53690463825748      9.52787409099439
  C   4.72996964700134      3.46367319427563      9.96879093494747
  H   4.42756505127625      3.65958828424165     10.99656604201296
  C   4.69271736099050      2.15738330894917      9.46015032714693
  H   4.35653891500148      1.33438627129499     10.08987104059347
  C   5.08720414100587      1.90755921436341      8.14259723781085
  H   5.06929050025004      0.89026838989422      7.75069657586837
  C   10.70062810068478      7.56919300547022      5.28714632544528
  H   9.70185178932661      7.86406714735253      4.97723650332487
  C   11.66998534345872      8.44426871725370      5.77979108288588
  H   11.43027776538497      9.49824137153256      5.89853896773567
  C   12.93515610968846      7.94437286656466      6.10829190087589
  H   13.70746261451017      8.60595218683541      6.49684130797133
  C   13.19517366272810      6.58054200491320      5.92693837803543
  H   14.16515613064635      6.15088112061998      6.16516051471384
  C   12.17985282629792      5.76115023081897      5.43315491022052
  H   12.31119361192648      4.69614333477247      5.27030728448036
