78
Coordinates from ORCA-job BUBGEM_2_6_tpss_d4_lanl2dz_631gpol_Mn2.opt
  Mn  6.37681973047533      4.23126843588970     14.22382912550747
  N   7.90726230340140      3.28721491661312     15.46263181369664
  N   6.07915225249417      2.20126496267909     13.53414919895571
  N   8.02248393190165      4.03953340713364     12.70137834655879
  N   4.92474974346417      4.78727261564840     12.68385268142123
  C   6.54881939509754      2.18780057004465     12.10703299999333
  H   6.63360983916767      1.15001737999116     11.75686881759065
  C   7.90802666764306      2.86005428423301     12.03242076827174
  C   8.07374266119723      1.98695873324289     15.10575104609786
  C   8.94780857445570      2.34513739127752     11.25551585063364
  H   8.81380347447468      1.40340152270838     10.72946704938452
  C   9.21344158329543      1.26723597062472     15.47632248551540
  H   9.32406254175769      0.22859606787843     15.17170237394145
  C   8.86291835001001      3.88824221228589     16.21031301209226
  H   8.68325692636451      4.92948111822657     16.47150994482530
  C   10.19798628967980      1.89319241343936     16.25025866673955
  H   11.08955000896572      1.34701270483607     16.55009145804171
  C   10.01642472242746      3.22780866348731     16.63283643657314
  H   10.75186982043567      3.75003801453796     17.23900895903190
  C   6.93107104792951      1.29434633724139     14.37826738517449
  H   7.31588465750289      0.46677190841692     13.76666954025526
  H   6.27562324359038      0.85269057062302     15.14094824891371
  C   10.26455253654969      4.27988018467011     11.84909094313551
  H   11.17469450152836      4.87179162807871     11.79889097427414
  C   9.18266716886856      4.72630079706551     12.61140196097729
  H   9.23287905834202      5.66064456195390     13.16711475729218
  C   10.14563063700281      3.06603051911649     11.16233143044292
  H   10.97075825656579      2.68561558544389     10.56438422578404
  C   4.80444805078775      6.30963390710130     12.82510974012039
  H   4.47282933131626      6.48067058154299     13.85998190478026
  H   5.82866946240433      6.69550277482378     12.71164871899508
  C   3.87097800210032      6.97590432812325     11.84491714158522
  C   2.50814437957313      7.13949791241295     12.15711564665393
  H   2.12962160045245      6.82509165545826     13.13045955351600
  C   4.35158769411762      7.42596311288132     10.60058312662656
  H   5.41117784146332      7.33213503740709     10.35998078628725
  C   2.12124948102257      8.15554448408363      9.98882657330765
  H   1.44452787147573      8.61569893156642      9.27198926466967
  C   3.47985598043584      8.01046685402422      9.67533825819903
  H   3.86085284808002      8.36019028866617      8.71824649141645
  C   1.63667656783450      7.72415467144491     11.23140243692176
  H   0.58603527502992      7.85194653113607     11.48295073816605
  N   4.81375720905880      3.48476791491741     15.61823329500803
  C   3.40183789544886      1.56366537785659     15.98479502143769
  H   2.99467730064716      0.62921323007921     15.60738807054418
  C   4.27740583732937      2.30828682187516     15.19095921563989
  C   3.61069836881039      3.25463552464100     17.69557492821922
  H   3.37237812320084      3.66225302235914     18.67442216755659
  C   4.48648755015679      3.93825781111226     16.84983263412500
  H   4.94410546110594      4.87754665946269     17.15364410041845
  C   3.06034184866184      2.04511968965045     17.25532621584081
  H   2.38090227221456      1.48232894897135     17.89144600334461
  C   5.41230324990460      4.43725362415649     11.31852042725399
  H   6.37075797254302      4.93586916137364     11.14742814447242
  H   4.70883676532179      4.80650059696677     10.56062793408528
  C   4.17224255712511      2.28728587991280     11.34562256493756
  C   5.55816668715318      2.90624959889092     11.12782868198224
  C   3.66769931590885      2.60546899894786     12.76119002061377
  C   3.59613154115237      4.14667138430450     12.90118125054564
  H   2.87105824833566      4.52068619024125     12.16629802454854
  H   3.22913346386988      4.42066566114928     13.89527963609000
  C   2.23371179323194      2.06649947047747     12.92597048095730
  C   0.88981488720682      0.11820722698826     13.01591185254735
  H   0.29850224701363      0.53041186679380     13.83805511656860
  H   1.06938161665426     -0.94993551339542     13.14027515560129
  H   0.40742445314658      0.33223251702421     12.05876304156289
  C   6.00974326920791      2.67264414647318      9.67350264201103
  C   6.63271402505653      1.04433452989261      8.07115927177566
  H   5.74076718614902      1.22807461691714      7.46688587222077
  H   6.88781045216664     -0.01545939001036      8.09156752860577
  H   7.46506606371918      1.65622699091305      7.71271545183506
  O   3.54708113280586      1.66749431945690     10.50874889497831
  O   6.33768760284408      1.38370272295448      9.46807910695623
  O   2.22689976261597      0.72372485770640     13.01814950574406
  O   1.25362933740674      2.78791055720594     12.94191114168836
  O   6.03524316353715      3.55721474664398      8.83767060745593
  C   4.62537239319476      1.88947939619475     13.77119138961008
  H   4.45242463541094      0.81150629283445     13.65275372084939
