84
Coordinates from ORCA-job BUBGEM-CH3OH_2_4_tpss_d4_lanl2dz_631gpol_Mn2.opt
  Mn  6.43472693925307      3.94389295538095     13.99469453848544
  N   7.75274489960857      3.02804647400863     15.21682524325277
  O   6.79921964346253      6.08491565947060     15.09723321796265
  N   6.10751404336301      1.88041321256843     13.28952333642947
  N   7.87049774241408      3.84797728088833     12.57604917640007
  N   4.95113964762402      4.50123639795309     12.56358462514339
  C   6.52140646724741      1.94751025041600     11.85439899553482
  H   6.67178003820982      0.93739359656757     11.45116019197577
  C   7.81774657182020      2.73470157052808     11.78264701473423
  C   7.89096247082152      1.68539581507947     15.07098727083450
  C   8.84309931189219      2.41204679241222     10.89505881433407
  H   8.75395462968246      1.51882941941228     10.28166002857723
  C   8.79615414571981      0.95648184567156     15.84838380974688
  H   8.88359829768537     -0.11868286117361     15.70370915618051
  C   8.49262352376864      3.66340084091990     16.16253080450403
  H   8.30768047259642      4.72747055645479     16.26520271837961
  C   9.57359373623364      1.61429507887490     16.80595097160886
  H   10.28283331141542      1.06041517151533     17.41627716632556
  C   9.41018436819212      2.99586613290127     16.96910011433688
  H   9.97917096890956      3.55039867639596     17.71072042414027
  C   7.01350289134524      0.97302683295038     14.05297139723172
  H   7.65007537241677      0.42407561309830     13.34588897977996
  H   6.40693903344516      0.21948731170640     14.57395998038567
  C   10.01499808821365      4.39109701871011     11.61100775438490
  H   10.86075158247187      5.07270607935197     11.57356887283028
  C   8.95922905746285      4.65152648842798     12.48405417113244
  H   8.96587269803177      5.52202603705988     13.13254737682254
  C   9.96343290075120      3.24918660255117     10.80318128473556
  H   10.77468372984428      3.01380666945488     10.11873674189397
  C   4.81461345481564      6.02197729745126     12.69884297495912
  H   4.44517953644911      6.17806108474969     13.72218233265132
  H   5.83587651653649      6.41458732238160     12.61499208910183
  C   3.89521469064174      6.68894211684934     11.70531325384497
  C   2.52386341939698      6.83691767598423     11.98720118917147
  H   2.12186567961861      6.49479938391840     12.94164355395073
  C   4.40353564568452      7.17601535660775     10.48623660858373
  H   5.46856000480528      7.08924653579086     10.26775880962237
  C   2.18440856591456      7.90673897271719      9.83703274983861
  H   1.52256718901661      8.37976364071663      9.11473826628879
  C   3.55165540205816      7.77889013958145      9.55470878533701
  H   3.95387026503693      8.15416544543004      8.61619819341950
  C   1.67177701708294      7.44015442697775     11.05528241464113
  H   0.61415244911366      7.55371098346520     11.28320463241207
  N   5.04936557541548      3.35370462491123     15.34029010622613
  C   3.62010002372259      1.51364349536327     15.97031400387090
  H   3.15960999406678      0.56728188254999     15.69727020434394
  C   4.44827363128351      2.15914687565268     15.05318502580562
  C   4.02320730773168      3.31242122021301     17.52275389785224
  H   3.88846125139054      3.79780020150048     18.48585558946563
  C   4.84799452727916      3.90179931399951     16.56504840044072
  H   5.38412788093593      4.82596347586432     16.76542432560411
  C   3.39421490325716      2.09792913311307     17.22433321985332
  H   2.75160936372519      1.61003030373984     17.95305658588142
  C   5.33866865896845      4.17031125002337     11.15828238842144
  H   6.28049310115077      4.67239438145060     10.92230334339081
  H   4.57797719556866      4.55220281233041     10.46647655637187
  C   4.10133113304481      2.01056210200985     11.24077811859690
  C   5.46540953394191      2.64470528904467     10.93948547543367
  C   3.67066989089063      2.33587576760239     12.67669766572813
  C   3.61939278866843      3.87460632482988     12.81941560035173
  H   2.88430802754754      4.25979900556064     12.10130070964419
  H   3.28150182771468      4.15216498365015     13.82180883977747
  C   2.24247234507963      1.81421108576311     12.92085385970258
  C   0.88354212512879     -0.11350434810547     13.12882532300711
  H   0.34140391701368      0.32519730678721     13.97099756708051
  H   1.05780045457708     -1.18043751032354     13.26999678369959
  H   0.35301059149644      0.08331891836666     12.19362925133077
  C   5.82034363712716      2.43051891453534      9.45645125327917
  C   6.37583798801370      0.83033175018259      7.80179580489678
  H   5.42917147508173      0.96455624188229      7.27213102075284
  H   6.68854924632031     -0.21409536306793      7.79883457606419
  H   7.14236553937554      1.48550356605969      7.37887606869578
  O   3.44209641690452      1.36939982978313     10.44654966169755
  O   6.17644792948261      1.15546187683692      9.21857135613885
  O   2.22496296737986      0.47544965426096     13.04634035109226
  O   1.27161044545850      2.54825798965495     12.96520492136611
  O   5.75223411668588      3.31922661643227      8.62663921179051
  C   4.67513786787789      1.63407465537939     13.64521160084303
  H   4.45014524052820      0.56013335950091     13.60652638782610
  C   7.79307340098649      7.15431247758671     15.01804198624157
  H   7.71854623807224      7.68186720586546     14.05925823097341
  H   7.65541993521547      7.85448742561878     15.84853293865541
  H   8.76959081050449      6.67288533846693     15.10971425249966
  H   5.92563427531120      6.51873666294550     15.16809750339738
