80
Coordinates from ORCA-job BUBGEM-OH_2_1_tpss_d4_lanl2dz_631gpol_Mn2.opt
  Mn  6.53068665121150      4.05020988384998     14.07898443407405
  N   7.81003627078653      3.15004506669597     15.32125242777879
  O   6.97148967628346      5.61970246429002     14.80878116183400
  N   6.19291732060507      2.14055493655553     13.38577827624293
  N   7.97801220608095      3.95399085827044     12.71127050549155
  N   5.07901492730794      4.72065218640482     12.66776153556217
  C   6.59950873332616      2.15044992153799     11.92669118501675
  H   6.69254130033740      1.12103676617839     11.56051328715741
  C   7.91835333832311      2.88599549838910     11.86688432087295
  C   7.89411653565912      1.80360261723941     15.21987425547001
  C   8.95117047393079      2.59268328231297     10.97867476940883
  H   8.86698928772499      1.73430239146422     10.31744606732321
  C   8.71710528295078      1.05500131571056     16.06550895359944
  H   8.76360179064087     -0.02704806979074     15.96181814423318
  C   8.54151509632828      3.79819288455267     16.26044959199027
  H   8.41554708164749      4.87653731589012     16.27890412385561
  C   9.47468077473131      1.71772192997363     17.03664390156171
  H   10.12203176656852      1.15525954812241     17.70541122595269
  C   9.38541798516537      3.11244279687169     17.13183132102379
  H   9.95757953651999      3.66660112976178     17.87119720195821
  C   7.07498017783762      1.15417139821793     14.12930243270826
  H   7.74396290099442      0.67714037055023     13.40192483176004
  H   6.44236060652187      0.36139000647090     14.54747802736516
  C   10.13559746217561      4.52010970432205     11.82826589285490
  H   10.99323303280135      5.18754921321706     11.84075591945931
  C   9.07177264152918      4.75107202020689     12.70209675385151
  H   9.05898183374739      5.56884032129870     13.41708498930972
  C   10.07919665803448      3.42550711858464     10.95705948805156
  H   10.90003944356163      3.21920025059193     10.27431840235308
  C   4.92484207542557      6.25268113251006     12.78076730789757
  H   4.64988570818256      6.43243179493895     13.82743782154919
  H   5.92709875852272      6.65215250709798     12.58006023453803
  C   3.91357975728494      6.87583063440841     11.85243184159817
  C   2.57589271863351      7.04020813428137     12.26198495737807
  H   2.27070858546999      6.73286341308141     13.26288195452750
  C   4.29947202267944      7.32104644658171     10.57271390411390
  H   5.33948282973325      7.23332548993638     10.25669217110968
  C   2.02686396743551      8.03491360084280     10.11945136907960
  H   1.29720088692018      8.48532746145649      9.44994373317727
  C   3.35997684892717      7.89400639779935      9.70914449139040
  H   3.66886672484362      8.23887863221597      8.72478448339803
  C   1.63654161835487      7.61341554154718     11.39837255657146
  H   0.60686245174128      7.74005983091965     11.72556188135125
  N   5.12923012090009      3.49913006543280     15.38879973204126
  C   3.64444174198544      1.70982077375816     16.01874575066124
  H   3.15840655105704      0.77369752834864     15.75674732960595
  C   4.50192466408769      2.32230615728872     15.10704119906121
  C   4.07317829490491      3.53614027944997     17.54211432862021
  H   3.92720388266458      4.04481822665301     18.49139145036995
  C   4.92905308039168      4.09108907680622     16.58885319026554
  H   5.47809705954790      5.01427665294070     16.75204397343498
  C   3.42489863568687      2.32799687328326     17.25821212118453
  H   2.76184756043664      1.87100829052202     17.98897716803377
  C   5.47619375571676      4.40052262899750     11.26234699487042
  H   6.43285817814060      4.88522525963398     11.04845557727901
  H   4.73355642709916      4.81172930698663     10.56781127246107
  C   4.19117353491913      2.26464003678537     11.29503264458158
  C   5.56900135662351      2.87921149368243     11.01493383490505
  C   3.75821143038624      2.57167140533658     12.73517239601071
  C   3.73607932723503      4.10581285010263     12.90740587792261
  H   3.01216073028839      4.51700872326279     12.19312296127474
  H   3.39695435321848      4.37578318516852     13.91111425313176
  C   2.32204588504802      2.06074389274386     12.96033298278219
  C   0.95489431890136      0.13335951158181     13.14327603008547
  H   0.39691290644539      0.57743322185027     13.97198140182623
  H   1.12564358788617     -0.93289628236390     13.29328527604632
  H   0.44471635527360      0.32605703839565     12.19607107847856
  C   5.93331865288843      2.67594575307092      9.53175511972069
  C   6.51047534987844      1.08383595717110      7.87432598658964
  H   5.56444962653706      1.20920740970214      7.34162479214766
  H   6.83465470796252      0.04299269343882      7.87089173636276
  H   7.27158970798535      1.74900465625819      7.45752461914065
  O   3.52913248328747      1.64519176671591     10.48715215503885
  O   6.30036581341549      1.40402301420986      9.29263330708204
  O   2.29963174991225      0.72144144256013     13.08448716660303
  O   1.35670969000485      2.80068951486048     12.99089135021804
  O   5.86167855912200      3.56855578442616      8.70802094274164
  C   4.74267168449449      1.83981497718609     13.69503903244064
  H   4.55713664793662      0.76365054450041     13.59741139962380
  H   6.57022584024218      6.44533414389291     14.46912143155418
