80
Coordinates from ORCA-job BUBGEM-OH_2_3_tpss_d4_lanl2dz_631gpol_Mn2.opt
  Mn  6.51774076747932      4.03899106539275     14.07817788123626
  N   7.80923147908276      3.14273607564181     15.31199213952114
  O   6.96795278721549      5.60675989226103     14.82398290809846
  N   6.18597619323029      2.13797219101515     13.38943423271512
  N   7.96190396380987      3.97385234813647     12.71057140542934
  N   5.06603035471063      4.70677971070888     12.67096145703742
  C   6.59679706422401      2.15371891753112     11.92925574340305
  H   6.69851695288272      1.12484556330629     11.56443773033076
  C   7.91080814454225      2.90045733744329     11.87075521542301
  C   7.89967653860523      1.79687047592025     15.20923529632913
  C   8.94550277106594      2.61278786514805     10.98316380535989
  H   8.86932910003426      1.75098600329647     10.32532908513657
  C   8.73648994575312      1.05256812169995     16.04455386490798
  H   8.78748999071944     -0.02913921823540     15.93957637186278
  C   8.54775421092505      3.79568717106000     16.24240743589606
  H   8.41474335355695      4.87314546482953     16.26184468714511
  C   9.50152388275422      1.71931045874799     17.00705908019440
  H   10.15985900920946      1.16051920844340     17.66807513770467
  C   9.40506433361465      3.11349825076219     17.10331789546915
  H   9.98255060484074      3.67083529016360     17.83610465546234
  C   7.06795404956977      1.14755247828276     14.12986379882226
  H   7.72553637476257      0.66225845624397     13.39786539142180
  H   6.43118374034959      0.36313096490709     14.55692628555956
  C   10.11199521356617      4.55650788808765     11.82165025250760
  H   10.96319598395447      5.23221864815263     11.82906540265946
  C   9.04691232072223      4.78171367855448     12.69588485023082
  H   9.02379647059229      5.60241666387805     13.40757118658691
  C   10.06564524108622      3.45658970572494     10.95652223199992
  H   10.88775115763099      3.25465865276341     10.27402233507254
  C   4.91900427838732      6.24020045720213     12.79362908073832
  H   4.62214344747553      6.41145249095506     13.83596016617187
  H   5.92704201568455      6.63474938112115     12.61752957751383
  C   3.92785254863718      6.87329179239122     11.85095199964612
  C   2.58255855894799      7.03841930386437     12.23428472314952
  H   2.25496360410285      6.72330011986664     13.22566538073080
  C   4.34245437806055      7.33048101304170     10.58456223846631
  H   5.38844112970262      7.24094501144432     10.28945665549696
  C   2.08279346858109      8.05873480610913     10.09162247904240
  H   1.36925799104623      8.51978857744866      9.41206419354082
  C   3.42367075229152      7.91656603971088      9.70774663470969
  H   3.75456922929624      8.27071406395872      8.73389853991588
  C   1.66394422908483      7.62493130654983     11.35724773673683
  H   0.62821804769577      7.75269480486637     11.66425639919084
  N   5.12480163375917      3.50100400642108     15.39685544824523
  C   3.64091724679485      1.71038072668771     16.02857904802287
  H   3.15455090582159      0.77411125467873     15.76755706151730
  C   4.49635968353179      2.32333467759615     15.11551746198995
  C   4.07271589582775      3.53542858355241     17.55258723309487
  H   3.92918180072023      4.04282730385878     18.50292514036725
  C   4.92714731413690      4.09075245522562     16.59810041294391
  H   5.47981628373680      5.01195218649445     16.76094408026296
  C   3.42315373712916      2.32794967727473     17.26897004059222
  H   2.76122189526620      1.87052960094667     18.00043422408655
  C   5.46061337372482      4.39205491757965     11.26339266840870
  H   6.41407729896991      4.88164981621317     11.04756710982280
  H   4.71312731382650      4.80178942525167     10.57348067642280
  C   4.18496659383679      2.25072487960728     11.30083800888500
  C   5.55968288133688      2.87172707359784     11.01736343778921
  C   3.74824032926604      2.56112866582186     12.73962742392279
  C   3.72231056166546      4.09461418399460     12.91077163002268
  H   2.99969019689261      4.50704280845173     12.19594745936305
  H   3.38415684065381      4.36410558877638     13.91492679426053
  C   2.31335300102860      2.04695810388827     12.96448316658365
  C   0.95041337094956      0.11786397972948     13.15765074939577
  H   0.39070813854927      0.56531560413904     13.98336443424898
  H   1.12337661044039     -0.94714560200508     13.31369083508124
  H   0.44092862787503      0.30439207390503     12.20885271090254
  C   5.92248079566563      2.66779014531189      9.53408477396525
  C   6.50757293437839      1.07631378865970      7.87892227597344
  H   5.55997408152891      1.19558807747640      7.34762809053329
  H   6.83738151814088      0.03725083850007      7.87706590694547
  H   7.26445891247371      1.74476383664351      7.45972162632619
  O   3.52712102299365      1.62311482782577     10.49583975871059
  O   6.29805747548918      1.39822482001944      9.29704029620535
  O   2.29408334971843      0.70870134928719     13.09723054151775
  O   1.34632354174377      2.78501155319278     12.98723932079379
  O   5.84240735035557      3.55860720911715      8.70920754621489
  C   4.73430742988514      1.83737668272366     13.70314819732326
  H   4.55228356584185      0.76042451536595     13.60949253660724
  H   6.49265080655943      6.41617186579098     14.55080830407604
