58
Coordinates from ORCA-job ABOSUH-OH_2_4_tpss_d4_lanl2dz_631gpol_Co3.opt
  Co  1.29451566633987      3.03398416947620      4.10449531494282
  N   0.37545296780147      4.20517018261797      5.47356418159962
  N   2.80106750862779      4.37036558834092      4.23196301207936
  H   3.29530993172942      3.99666304502068      5.05384991724778
  N   2.33556708797502      1.77949640113540      2.90644876788199
  N   -0.20333755232840      1.71614501764456      3.95183758829464
  H   -0.64562744872703      2.14615685578088      3.12307521219964
  N   2.18357988528144      2.08974070888300      5.70988605113361
  N   2.91381485478942      1.11367184960075      5.66890776677774
  N   3.61608619494251      0.17795515662538      5.62487836215508
  O   0.37264184585439      3.84974467190979      2.68113652112876
  C   1.30201416877551      5.27641984441120      5.89900065962192
  H   1.92596834874180      4.88556003569326      6.71583313984849
  H   0.77423497033088      6.16242973673225      6.26342398999061
  C   2.16455208298212      5.64459646437975      4.69275374409714
  H   1.55311614438119      6.05036671478320      3.88186186957228
  H   2.92782424101740      6.37983929997426      4.97501088386856
  C   3.84148534471687      4.41939821227210      3.12983960915615
  C   4.45705765254367      3.00166474155663      3.04033302057981
  H   5.31807565581226      3.06350976748602      2.36361715615926
  H   4.88204845986719      2.70982086801975      4.01706467658931
  C   3.58093322364947      1.85481839175493      2.55792208349519
  C   1.42194673745322      0.71373255756752      2.43115329431366
  H   1.95552825051375     -0.20413501083323      2.16597393479735
  H   0.91738005122549      1.09580253026504      1.53250714286501
  C   0.40786429477838      0.42017511547928      3.53054740604042
  H   -0.36547688207111     -0.26144056357249      3.15519744596959
  H   0.88532796286396     -0.04058542346210      4.39963171735053
  C   -1.25523122803924      1.66599698811753      5.04074614284820
  C   -1.79035488469956      3.10573176806703      5.21579813334681
  H   -2.12399357023343      3.50176559505580      4.24060199300424
  H   -2.68946382306690      3.04862129163381      5.84033531511077
  C   -0.87215829933697      4.15698872220032      5.81018763287426
  C   4.96215084221051      5.39914260683694      3.55284168441909
  H   4.61121883879624      6.43752491835936      3.53847819066649
  H   5.79625422617770      5.32668007488496      2.84531181052449
  H   5.34769363877691      5.16556746052265      4.55502444873171
  C   3.23778019903399      4.84479180308505      1.78518109390172
  H   2.53379904527720      4.09781117532492      1.39948399483089
  H   4.04574986971812      4.95205277742348      1.05174936050258
  H   2.74325834719979      5.82270138989291      1.85354921666883
  C   4.29262246025980      0.86383249535706      1.67227937132216
  H   5.30831728412089      0.69719323507708      2.05330350839241
  H   4.39693723057064      1.30635576308355      0.66874016458174
  H   3.78971565914964     -0.09986575195585      1.57097234892544
  C   -2.43190881548916      0.79010666661642      4.53900815246699
  H   -2.81129599698002      1.13841509760332      3.56848845803020
  H   -3.25335875321139      0.84166274084185      5.26296831973593
  H   -2.13830392025737     -0.26224651584672      4.45314125608726
  C   -0.69403338180699      1.10959759329090      6.35510273768684
  H   -0.36625389665009      0.06842762405661      6.25032150374387
  H   -1.49042594821731      1.11894394248341      7.10933885068944
  H   0.14290529782228      1.71117581798730      6.72892485871538
  C   -1.56022120025985      5.11395175994169      6.75021451388617
  H   -1.85286357594787      4.55341786767236      7.65134883283354
  H   -2.49055308314978      5.47237633274123      6.28819566897037
  H   -0.96164213494171      5.97176582227262      7.06128335854767
  H   0.74234792330576      4.59324600782904      2.16080460819767
