62
Coordinates from ORCA-job ABOSUH-CH3OH_2_1_tpss_d4_lanl2dz_631gpol_Co3.opt
  Co  1.35894934748391      3.07367206010199      4.25296991483197
  N   0.42641597194722      4.21901831695554      5.55698301644877
  N   2.87848862091477      4.35763325400937      4.45652572063013
  H   3.29393551007006      3.89327320963698      5.28092104762592
  N   2.27721571347833      1.95519085018753      2.95562912466740
  N   -0.14213049994589      1.77716831536241      4.10430090089147
  H   -0.64832098644901      2.22094064805499      3.32321467176486
  N   2.18026266232673      2.19826883229202      5.75385958343444
  N   2.79995085371725      1.15136784296641      5.54175954449856
  N   3.39623109696939      0.15933330995231      5.43446578776435
  O   0.27045767286429      4.16800240040476      2.82064980008644
  C   1.34873191595569      5.26007671445856      6.07688022403613
  H   1.90425289265355      4.83134723063964      6.92266063544911
  H   0.81038012391727      6.14584569361665      6.42552354603704
  C   2.29700722429329      5.63677964504223      4.94677124117584
  H   1.76709741263127      6.12459179412639      4.12123811490289
  H   3.07715449392818      6.31514880074891      5.31169752882313
  C   3.98770812339034      4.44320481633143      3.43356184521352
  C   4.48354376557027      2.99471429322900      3.23139646299743
  H   5.39302789878723      3.02988484887136      2.62109065255622
  H   4.79361622934421      2.56770275160715      4.20090684850909
  C   3.52693155575425      2.00614168262183      2.59595405828000
  C   1.37842421367262      0.87990269930809      2.45302166346362
  H   1.93788983548500     -0.00295107727701      2.13601171213311
  H   0.81946041308190      1.26381248975383      1.58746066753690
  C   0.42754117436697      0.50307831289071      3.57921153405363
  H   -0.36255212011835     -0.15528973393115      3.19947585224881
  H   0.95384470653337     -0.01093397565785      4.38698160474478
  C   -1.17518349424679      1.63511446002489      5.21127714024952
  C   -1.72849721324374      3.05377073432128      5.45942257410870
  H   -2.14277194972536      3.45955338273772      4.51946225159563
  H   -2.58142034696269      2.96452592104803      6.14182944012774
  C   -0.77625206559002      4.08572009511516      6.03134300298881
  C   5.15580648261018      5.27454179752050      4.00963675105735
  H   4.89251586112865      6.33504400569615      4.09720274739165
  H   6.01723591937860      5.20968835311736      3.33445213947188
  H   5.47056380818287      4.90273790045783      4.99462738774854
  C   3.49179504824666      5.04698928390489      2.11638307540912
  H   2.71993859324192      4.42010408914992      1.66180811697009
  H   4.33132686272118      5.12107923741986      1.41502299639140
  H   3.09693622471795      6.06065103809935      2.25685331786921
  C   4.17260542612331      1.08849028073203      1.59015469240319
  H   4.95460819379506      0.50305646173907      2.09811262265680
  H   4.68413237888119      1.70228006569213      0.83560161233079
  H   3.49555007855407      0.40503031802163      1.07625984629561
  C   -2.34071864765643      0.75777946751492      4.69939151436807
  H   -2.73044816123548      1.11605163665964      3.73532159694400
  H   -3.16252142974904      0.78664855969662      5.42452083144240
  H   -2.04022891541937     -0.29090130086873      4.59483946858536
  C   -0.57624573159501      1.03687200136492      6.49042386854524
  H   -0.18612763089488      0.02714282697192      6.31531100749888
  H   -1.37176692650874      0.94725926966847      7.24045321391810
  H   0.23179049150663      1.65569640081674      6.89181475537919
  C   -1.36072874127474      4.90588650084002      7.15177107952819
  H   -1.51423501000384      4.23161362587582      8.00938548619019
  H   -2.35644242209260      5.27017311646051      6.86333543105080
  H   -0.75335473255595      5.74726678836804      7.48848785641096
  C   0.20064201739438      4.30893678166688      1.36348010123021
  H   0.74918316058739      3.46236490428012      0.94885820663507
  H   0.66389968161990      5.24835693498007      1.04891295700006
  H   -0.84849806249613      4.27105397881939      1.05213974241418
  H   -0.13333457006340      4.95110505578247      3.24364986298706
