57
Coordinates from ORCA-job ABOSUH-oxo_2_5_tpss_d4_lanl2dz_631gpol_Co3.opt
  Co  1.32392745622497      3.04531698837370      4.10845866933511
  N   0.35329777718895      4.28111350052754      5.34245939527228
  N   3.01038450242795      4.50002304894077      4.33209540993373
  H   3.51264695349329      4.20909221242551      5.17939312384800
  N   2.35009367914524      1.74896381492162      2.97321443921396
  N   -0.31188225883680      1.57909006765167      3.91656229913704
  H   -0.74964064725578      1.94236389125348      3.06087577445785
  N   2.09067404391426      2.28562229251434      5.72318056428930
  N   2.84004760110841      1.31161404173764      5.74341055540013
  N   3.54847510497250      0.39428135554372      5.83474996566123
  O   0.67661692656409      3.76902040895197      2.78063700874025
  C   1.24948593225696      5.36752236659670      5.78891066261622
  H   1.80550556752336      5.02270855327802      6.67306593037931
  H   0.68493750675707      6.26565293594398      6.05784316756893
  C   2.22015669075692      5.71395239428144      4.64827804813215
  H   1.67201281174714      6.01542470816936      3.75155296097997
  H   2.87894857629218      6.53347921110780      4.97061939748770
  C   3.97367974893359      4.46316146758317      3.18310885685643
  C   4.47597902656957      2.99413882268782      3.07362382242196
  H   5.37490869319847      3.00975530352403      2.44691936564630
  H   4.81840701150455      2.65579354419990      4.06647428577756
  C   3.55338657434582      1.91657054758814      2.51641095822791
  C   1.46194233452880      0.65811734827128      2.50700102371327
  H   2.03193958285325     -0.25098114192041      2.29065212752552
  H   0.96351993407473      0.98811068592353      1.58424124926350
  C   0.41958726008879      0.33674316417684      3.58956592711871
  H   -0.26267087664806     -0.43747305399832      3.20957512796910
  H   0.89909608000980     -0.04143284891972      4.49734593539493
  C   -1.32971628488017      1.62864373882749      5.01650330026369
  C   -1.79464074847739      3.11172117304501      5.11479314992087
  H   -2.03869258908397      3.47757840507982      4.10323263375058
  H   -2.73502787447890      3.12013757584519      5.67708149478461
  C   -0.87025210871603      4.14509808096452      5.74426191290495
  C   5.19650402701878      5.34672611100448      3.56284766812491
  H   4.89188299751843      6.39084037321782      3.69953424662628
  H   5.93406806726956      5.31484182112460      2.75190148645262
  H   5.67852794094602      4.99024001771134      4.48319602181441
  C   3.34085903809108      4.95927453965199      1.88045922776464
  H   2.42530116588472      4.40808563325861      1.63082770038690
  H   4.06300415252410      4.83414601849538      1.06450991879022
  H   3.09720993107720      6.02681150296431      1.93658833883323
  C   4.17989018894160      1.06136846631313      1.44592128252266
  H   5.13159438126687      0.65037050966426      1.81265636375881
  H   4.42832052264017      1.71333186820465      0.59430939989427
  H   3.55285576677631      0.24590264365669      1.08153951775987
  C   -2.55537505421506      0.77702852032781      4.57649767695437
  H   -2.97988654682245      1.14778745869750      3.63405281356292
  H   -3.33145893482011      0.82777738127263      5.34926233434691
  H   -2.27183247168415     -0.27476638713572      4.45267343418285
  C   -0.76892816512605      1.10865397964321      6.34174641731777
  H   -0.50720293432827      0.04521173653699      6.28216792256571
  H   -1.53493336854733      1.20842619167417      7.12010222421302
  H   0.11792271791681      1.67604851232156      6.65697544187153
  C   -1.51532223275520      5.00795958765764      6.79833709988756
  H   -1.89367570234592      4.35242053639191      7.59649193516321
  H   -2.39181046757175      5.51543617318293      6.36865109403824
  H   -0.85364900775899      5.75095219906440      7.24745188917380
