62
Coordinates from ORCA-job ABOSUH-CH3OH_2_3_tpss_d4_lanl2dz_631gpol_Co3.opt
  Co  1.48471720869461      2.97571628245667      4.40914742590887
  N   0.47710463869324      4.20780184889888      5.60189290236486
  N   2.95591771320904      4.34650466773812      4.54468238559010
  H   3.40881691624413      3.98620273537909      5.39800727936043
  N   2.32804060172691      1.92379522843391      2.97764184545878
  N   -0.08418032558490      1.78857943787283      4.11751293786205
  H   -0.53412856644072      2.36258291621958      3.38276766789694
  N   2.46377488001305      2.05902654733582      5.85764441939401
  N   2.70038810955075      0.85653558404330      5.83804195909312
  N   2.94365973182470     -0.28434143121255      5.83422279714441
  O   0.04025443712588      4.20604955458122      2.67462666986480
  C   1.35732732006834      5.31846144603847      6.05411699708655
  H   1.91376286236340      4.97711102649623      6.93869954224824
  H   0.78536752282605      6.21026559157714      6.32554605730402
  C   2.30450749055084      5.63525395907042      4.90670344313470
  H   1.75568751727658      6.00052160214996      4.03295854202865
  H   3.04387187229955      6.38776375486739      5.20737695213248
  C   4.03522139337700      4.38426231502636      3.48696558829173
  C   4.52175080286589      2.92112972097007      3.33207749237165
  H   5.47372261445574      2.93174741664085      2.78959961746453
  H   4.73906235667653      2.50479497574450      4.33081372504371
  C   3.57991665637142      1.96728046600793      2.62953392656609
  C   1.37418722667745      0.95988533319794      2.37538992899530
  H   1.87896490604049      0.08167802083243      1.96428078066762
  H   0.84080789894616      1.46724728317700      1.55944004655242
  C   0.40646473552426      0.53570683013615      3.46863738926199
  H   -0.42596185526494     -0.03551685380238      3.04128491060446
  H   0.90936292143402     -0.07989374359022      4.21951208943325
  C   -1.10767965718610      1.61685779521009      5.22433600750327
  C   -1.67437562365946      3.01976625300085      5.51997462231458
  H   -2.14403890983196      3.43068970269460      4.60816940349109
  H   -2.49276371842120      2.90175475121399      6.24005306483882
  C   -0.73681283017813      4.08710558840748      6.05292495451905
  C   5.22390556642624      5.22944951169630      3.99541406269291
  H   4.94291474893390      6.28079853565477      4.12760304625559
  H   6.03565440567967      5.20027913208210      3.25897239594143
  H   5.61603921555053      4.84406947457031      4.94688122866368
  C   3.48129805896200      4.94555188526659      2.17227290609313
  H   2.58016370227594      4.40652192595684      1.86138892240370
  H   4.23999674395527      4.84979129245851      1.38613017063380
  H   3.24310266132484      6.01228106387918      2.26205247372884
  C   4.21875497154675      1.12179199618383      1.56060701581275
  H   5.08409599633625      0.59525065429449      1.98896041841339
  H   4.61869380550704      1.79220063931704      0.78479773616028
  H   3.56046806927050      0.39535976458827      1.08202597226924
  C   -2.27147291442172      0.73653749158849      4.71210574023524
  H   -2.66645975466311      1.10089559461066      3.75313057844693
  H   -3.08891740529392      0.75608605178653      5.44244295383697
  H   -1.96400532486084     -0.30912946010692      4.59818073020650
  C   -0.48273921679992      1.00064769248505      6.48300644230315
  H   -0.04420027206188      0.01752291512873      6.27496870866903
  H   -1.26891214055069      0.84808659872680      7.23228931102880
  H   0.28791491422492      1.65010604044609      6.91323142560144
  C   -1.36384162435557      4.97160324884875      7.09985763741751
  H   -1.51529631170230      4.35796645457268      8.00223057327150
  H   -2.36321123560871      5.28758314046124      6.77025281110114
  H   -0.78406034787800      5.85083337918347      7.38431501359235
  C   -0.05667441312811      4.50200395292598      1.24673787060345
  H   0.45095402165879      3.68343001959388      0.73146767172983
  H   0.44165472789710      5.44904966929998      1.01127570110860
  H   -1.10743067746164      4.53820345305249      0.93760004412866
  H   -0.38583881903211      4.94151127463344      3.15788706585717
