56
Coordinates from ORCA-job ABOSUH_2_3_tpss_d4_lanl2dz_631gpol_Co3.opt
  Co  1.58426069968862      2.83375319813110      4.44640938821198
  N   0.58589667060028      4.07474093878662      5.55698478061452
  N   3.03207173873405      4.23469537648240      4.48628296144570
  H   3.74763888569230      3.78984927353499      5.07667216557247
  N   2.50632475965676      1.71859143290012      3.13952473491706
  N   0.00002987232783      1.73677652967759      3.93645113126198
  H   -0.27041449548650      2.08277002976549      3.00181440384380
  N   2.35190550405170      1.93731682236204      5.99207601814361
  N   2.89107609959682      0.83491909821535      5.91405128168160
  N   3.41612985745600     -0.20459962498009      5.87321270448450
  C   1.56238657418355      4.91046589621035      6.29308192093337
  H   2.07248373889962      4.25119264889582      7.00762240243576
  H   1.09298416436088      5.72816020428874      6.84560635698211
  C   2.52953961422171      5.43268268895369      5.23970730564067
  H   2.00698349016601      6.08880603422772      4.53683590912831
  H   3.36558701332186      5.97985138985534      5.69008616294664
  C   3.64780575893006      4.50512287904045      3.12951539274981
  C   4.40980917671654      3.22574213842326      2.72333778127394
  H   4.92588722242221      3.43061060453657      1.77587927838387
  H   5.22180922093511      3.02536885488406      3.44629545829198
  C   3.64144447103310      1.93716711298853      2.54020352286183
  C   1.76644403522121      0.45932450819188      2.83568690528186
  H   2.41269617931313     -0.41615427530006      2.96878529750950
  H   1.45613039950722      0.49290263207158      1.78117564998133
  C   0.55692870637087      0.35745755016413      3.75669096918692
  H   -0.19423912162822     -0.31684158423613      3.32947722316610
  H   0.83381907844632     -0.01587501912607      4.74499084633223
  C   -1.25385030803428      1.83020560686172      4.79767349616539
  C   -1.63275056629395      3.32507078508170      4.87002775247230
  H   -1.76206465189605      3.73932124334537      3.85401916517359
  H   -2.62339657268346      3.39200290713113      5.33598121624036
  C   -0.69861980648848      4.24287283425053      5.63184725026538
  C   4.66620584497361      5.66121235887526      3.22320408211978
  H   4.17456207744591      6.60500387585991      3.48583833283416
  H   5.15040834829298      5.80375663160805      2.24971053114496
  H   5.44961369500865      5.45013699124197      3.96363706443325
  C   2.52803473708456      4.83952138913049      2.12997747828745
  H   1.77059678838394      4.04105961632835      2.09101714648825
  H   2.94900682836303      4.95169533544522      1.12389789562161
  H   2.02855562167573      5.78283865145185      2.37996914626739
  C   4.26512158642574      0.92056174233528      1.61549612075781
  H   5.27609443768389      1.22221280059021      1.32725549247701
  H   3.66423859427645      0.82342664328133      0.69730860061232
  H   4.31510567915486     -0.07285561784494      2.08033307763793
  C   -2.40801544442615      1.08235137418960      4.09364279571609
  H   -2.58419399658981      1.46919640387847      3.07987132705126
  H   -3.33170745293756      1.21634636861107      4.66894161487218
  H   -2.21753326460361      0.00479096120109      4.03669323980257
  C   -0.98984317526075      1.24870306268517      6.19427299824104
  H   -0.88192083895621      0.15834044495509      6.16189771372342
  H   -1.85152609116042      1.46411853694737      6.83751129020375
  H   -0.09251331164472      1.68013322058484      6.65397967412553
  C   -1.38462734788304      5.31319274407053      6.44293051068258
  H   -1.71046216264680      4.87679095333415      7.40069206874727
  H   -2.29008940256034      5.64184458750332      5.91837542152806
  H   -0.76614915944297      6.18795020812006      6.65633954304332
