54
Coordinates from ORCA-job AXUZAV-CH3OH_0_3_tpss_d4_lanl2dz_631gpol_Mn3.opt
  Mn  2.89688372687111      1.90000887264752      8.85728539389826
  O   2.13050677213886      0.59146178064819      7.74462651461910
  O   3.56989957775606      0.66673961978536     10.08428850918275
  O   0.98020771089117      1.83018568735465      9.84697360492273
  N   2.20535864620044      3.34162113687229      7.72180467415718
  N   3.44370451238782      3.36567110642502      9.99407005551108
  N   4.58741181439522      1.86269073006980      7.90894892764614
  N   5.09927861330672      2.93640573110350      7.62049570822583
  N   5.64757621696362      3.92383085251401      7.31863285010905
  C   1.79049377898323      0.68779630859704      6.47570405170488
  C   1.52392300734152     -0.50136410114451      5.74691119655872
  C   1.14479339670855     -0.44980086594184      4.41173310934270
  C   0.99939475396845      0.78738125978499      3.74157774685192
  C   1.23886920861640      1.96203092686826      4.43671509801768
  C   1.63652650873672      1.94757456182561      5.80073818960623
  C   1.83145582964142      3.19673765651449      6.46914260669298
  C   2.47371920701555      4.70438921463152      8.24469904992363
  C   1.42111643557262      5.77662940208784      7.92167827201317
  C   1.86227648536515      7.12142418416143      8.53595172172997
  C   2.10670997599022      7.00373124592863     10.05137145062709
  C   3.11428861560770      5.88373521357846     10.38419012946263
  C   2.62425156753712      4.56729823575928      9.76894494800125
  C   4.44112384071425      3.32811909886334     10.84179213548163
  C   5.15326206937224      2.13327351802476     11.18439759920770
  C   6.30574833769925      2.22866424607779     12.00654055763871
  C   6.97966284886900      1.09571606172730     12.43643444057133
  C   6.49097313463868     -0.17807943128967     12.06514093590903
  C   5.35440350567857     -0.30791265648996     11.27710606042957
  C   4.66308180572885      0.83689300745139     10.80282909650511
  H   1.64595445282911     -1.44889438187989      6.26763024872701
  H   0.96362185126894     -1.37878136954875      3.87183857888794
  H   0.70465256087897      0.81455139423497      2.69455689539624
  H   1.12809392948880      2.92773681896360      3.94140785750890
  H   6.65798087976782      3.22067973531420     12.29261876449933
  H   7.87072236602497      1.18385811694688     13.05465312378433
  H   7.01495439760773     -1.07350888115104     12.39829917901583
  H   4.97371506581531     -1.28398183834912     10.98395263799169
  H   1.65305750277595      4.09676998029899      5.87273839490638
  H   4.74416942232427      4.25090919584517     11.34332405939574
  H   0.44800887631184      5.46575902282409      8.33435883404344
  H   1.29504887439202      5.89351172447794      6.83698067159161
  H   2.79015990652828      7.44966153487999      8.04153078021443
  H   1.10295728110299      7.88964575475623      8.33357232991512
  H   2.47002679317625      7.96022796609689     10.45192677219720
  H   1.15241435737003      6.78737756387794     10.55796597869247
  H   4.10774496019927      6.13165297867074      9.97931633911047
  H   3.21263363656485      5.78663175382577     11.47481464914710
  H   3.44707759334228      5.01762729933657      7.83372623849596
  H   1.63010347379502      4.32644078672396     10.18117718963039
  C   0.71469821158223      0.56710119063754     10.52693539482051
  H   1.36738180205594      0.55776230700648     11.39972668644493
  H   -0.33968245131776      0.54280286153512     10.82948896470879
  H   0.96416017033636     -0.27045462380690      9.86724395070166
  H   0.45178218108167      1.82765050404583      9.02070084562355
