54
Coordinates from ORCA-job AXUZAV-CH3OH_0_5_tpss_d4_lanl2dz_631gpol_Mn3.opt
  Mn  3.40397497043575      1.93855278097093      8.49552486429682
  O   2.93073983230805      0.65901629661521      7.17040681819886
  O   4.00461940207256      0.63544862091461      9.68917971071653
  O   1.02551877811588      1.51555749551610      9.27011163498958
  N   2.43506964792208      3.37465710339193      7.50657568348316
  N   3.40606101486965      3.32490819191190      9.94904470470963
  N   5.24352864577469      2.72045724319842      7.89143960930642
  N   5.84738183571462      3.56274499561972      8.52099768136294
  N   6.39940268325676      4.39902603074954      9.13997256881206
  C   1.95550719636538      0.71052346058920      6.29390984364031
  C   1.57067408894065     -0.48669349226344      5.62778607299912
  C   0.54836109621698     -0.48869788416069      4.68832981006078
  C   -0.14491374453219      0.69837483124337      4.35572460304734
  C   0.21398432331516      1.88108684606720      4.98224312256308
  C   1.24800769691335      1.92039095660132      5.95618806137131
  C   1.57912023136544      3.19179678827245      6.54159071941715
  C   2.72895517721204      4.70343901916078      8.07927551610142
  C   1.86356169997020      5.87053173093283      7.58997843418908
  C   2.29139138990709      7.16622518659870      8.30638525729492
  C   2.19804891947623      7.01241664992012      9.83337240724802
  C   3.04201264353258      5.82450614528320     10.33398066076535
  C   2.62493361799385      4.53290988802097      9.61595823702330
  C   4.23227327371298      3.28056999907083     10.95727674533362
  C   5.00499315230920      2.12591571437293     11.33026803579125
  C   5.92145483831911      2.25755442898277     12.40277032602201
  C   6.66325238332551      1.17620915664208     12.85713377434007
  C   6.48363588178668     -0.08103363825706     12.24221937188460
  C   5.59057480894378     -0.24454771093804     11.18816413181817
  C   4.84258375240219      0.85140799011140     10.69176247174978
  H   2.11305071350299     -1.39516326242944      5.88042558371543
  H   0.27836287869295     -1.42358457167397      4.19807685617040
  H   -0.94218429653830      0.68261728132730      3.61594796950879
  H   -0.29852210843070      2.81205982472624      4.73553704479972
  H   6.04105687853301      3.23926523359983     12.86152144243884
  H   7.37242435518657      1.29543110181604     13.67331353167229
  H   7.05813765570482     -0.93890612556827     12.59055111388418
  H   5.45443627356370     -1.20857999320975     10.70313983992638
  H   1.05448205020525      4.05993937205818      6.13057676191129
  H   4.35340649534812      4.16541794699781     11.58634333879957
  H   0.80189505192075      5.66137107773489      7.80142717882437
  H   1.96896830568975      5.99130931220517      6.50213858052497
  H   3.32783248221787      7.40883192885592      8.02516887127531
  H   1.66210903316768      8.00039144099964      7.96648450620566
  H   2.53269483966980      7.93391372917164     10.32931250673118
  H   1.14519435267316      6.85917959329334     10.12108349307178
  H   4.11056287484879      6.00602277941505     10.14184523388356
  H   2.91069019110915      5.71418064509354     11.41999048494604
  H   3.78239378300229      4.90930510801935      7.83954364437064
  H   1.57438594794338      4.29350194400037      9.84807023104660
  C   0.95910074715824      0.22656235969862      9.92125990481975
  H   1.49572485493071      0.33941495858465     10.86557134557096
  H   -0.08683264245764     -0.05115936516838     10.11708563176991
  H   1.45676200690054     -0.54497118840054      9.31988591599123
  H   0.60749803751066      1.41598404371333      8.38933810960402
