75
Coordinates from ORCA-job BAZPIE-CH3OH_1_6_tpss_d4_lanl2dz_631gpol_Fe3.opt
  Br  0.99447839384339      1.58925933808977     -1.25884721634753
  Br  2.82723814609850      6.92254065214577      9.75431359831246
  Fe  -0.94603097146299      6.96460334526456      3.45085783226792
  O   -0.30676068798275      6.78810134718063      1.64431631548551
  O   -1.38333794135369      6.93830942662351      5.34489023666593
  N   -2.24088066165635      5.37832295169007      3.03058420337714
  N   0.28461644423733      8.59915775553135      3.92065808209279
  O   0.64990511051725      5.50789821102276      3.98929136710676
  C   -0.09666285262899      5.64440621176027      1.01309690497842
  C   0.91113109708554      5.60938209764951      0.01505416833718
  H   1.43931745825827      6.53600474901252     -0.20040173216226
  C   1.23455060495928      4.43561335767444     -0.65581765673688
  H   2.02129718875240      4.42400966725067     -1.40551287479238
  C   0.53027212517531      3.26120070116229     -0.34363193709391
  C   -0.49696548549813      3.25970528750743      0.59001703441985
  H   -1.03645067112907      2.34152675170456      0.79967818012420
  C   -0.84533611614509      4.44410624802009      1.28331368572215
  C   -2.00825379354381      4.41058911892726      2.17508188666829
  C   -2.95150417995030      3.25859805996418      2.03920917718926
  C   -3.65956395435236      3.06987529314104      0.83747120571198
  H   -3.50181948397196      3.75504312253204      0.00583448993304
  C   -4.56047014004117      2.00652628282531      0.71485386013576
  H   -5.11093885806789      1.86986776521379     -0.21388676552473
  C   -4.74388633816975      1.11427982018500      1.78013479129486
  H   -5.43683673555696      0.28137056082749      1.67904202225928
  C   -4.02825086610529      1.28875243937542      2.97295043573654
  H   -4.15887578841773      0.58932268971256      3.79639367780469
  C   -3.13951914426410      2.36089980026261      3.10716703321226
  H   -2.57606309210782      2.49713480993879      4.02954696180379
  C   -3.50864910581834      5.50890923073982      3.76418039022994
  H   -3.24300185245877      5.85506486780142      4.76829815006644
  H   -4.04241313543355      4.55711445642243      3.84861859815923
  C   -4.41436738228491      6.55516327070350      3.05727270321514
  H   -5.10494292266745      6.03505099095648      2.37967559556755
  H   -5.03018568919406      7.05867434324998      3.81576414552750
  C   -3.67377529366088      7.58667489863715      2.19794719165169
  H   -4.40241334641519      8.31266843705600      1.80353172603443
  H   -3.19435889643333      7.09453925654211      1.34285187356152
  N   -2.58142782378029      8.31967457527064      2.90607192419810
  H   -2.94085728300016      8.71318207341216      3.78492780787633
  C   -2.08897268879913      9.43212455469459      2.03775039687643
  H   -2.94442864943188     10.06555112436608      1.75267181389244
  H   -1.70056317322523      8.95903146128705      1.12660564181881
  C   -1.00497102825714     10.30039279200657      2.68285542836140
  H   -1.34936971948212     10.69648938750477      3.65025938056987
  H   -0.85599154356760     11.16705653361385      2.02345228332573
  C   0.36647854060798      9.62073784453241      2.86559194140521
  H   0.65427476417509      9.11166393714455      1.93578577910832
  H   1.11812212576159     10.38167977155166      3.09935556582237
  C   0.96090628409550      8.70934129411267      5.04378483611354
  C   1.99903210835607      9.76946640134371      5.23168197606751
  C   1.84554286584450     10.73860668834112      6.24116457582757
  H   0.96714216606924     10.71201950084904      6.88395617534044
  C   2.81635291793357     11.73119817697636      6.41271642452739
  H   2.68703543959601     12.48384486591350      7.18787310444766
  C   3.95564955784621     11.74946109992280      5.59634859885298
  H   4.71478895621381     12.51589627398747      5.73906087112605
  C   4.12124108538429     10.77695645827242      4.60028759901249
  H   5.01017188167075     10.78254494465697      3.97253938028128
  C   3.14354475720373      9.79447613200089      4.41179592290043
  H   3.26869427062276      9.03794320832761      3.63770090803414
  C   0.72624657302124      7.80169661964430      6.17324220528104
  C   1.68243838731875      7.75659077906516      7.21935875033780
  H   2.59878487747907      8.33138847904594      7.13025336429489
  C   1.46225063541027      6.97668143748719      8.34564778581097
  C   0.28188957783181      6.23034348770803      8.50048903039975
  H   0.11887715658032      5.63779302562605      9.39691016651387
  C   -0.66835240609853      6.25483348472320      7.48545110687859
  H   -1.59023091475287      5.68376164865196      7.57303871033949
  C   -0.46953052801265      7.00593403201891      6.29677932645770
  C   2.04783134711054      5.70893141347216      3.65601051922160
  H   2.05433940508274      6.12485868168058      2.64748191186129
  H   2.51352725660810      6.41079785913639      4.35835119523223
  H   2.57109736971265      4.74631925455771      3.66925891038424
  H   0.57992426871651      5.26413308278782      4.93555933920366
