69
Coordinates from ORCA-job BAZPIE_1_2_tpss_d4_lanl2dz_631gpol_Fe3.opt
  Br  0.84706960313094      1.75042669153322     -1.77842929977051
  Br  1.79311131823657      7.81960827628976     10.32789992749814
  Fe  -0.75440399157295      6.68531762275531      3.38223416276970
  O   -0.16797989750270      6.70417991202210      1.62641310963283
  O   -0.81147679490456      6.10269706441350      5.10402948873445
  N   -2.02892255634665      5.29855681160580      2.97532016657269
  N   0.56535290230432      8.07381919287712      3.84255971660929
  C   -0.01256633288767      5.59941038961608      0.90059299821747
  C   0.93142211647159      5.64367939628059     -0.15384604907068
  H   1.47243174206534      6.57263267823188     -0.31827549117701
  C   1.17933576608971      4.52814872567938     -0.94415507649226
  H   1.91900729757471      4.56881889818472     -1.73922553097545
  C   0.47305542289606      3.33897091085984     -0.69001221342412
  C   -0.48280080359552      3.26560207072972      0.31005774948991
  H   -1.01967441046972      2.33926328406327      0.48577304763491
  C   -0.76159463053777      4.39957286381694      1.11580121108255
  C   -1.85078249163381      4.34606782232405      2.07868360616037
  C   -2.78423319049251      3.18302062591424      2.01244660981030
  C   -3.57112590612366      2.96314925584529      0.86556180309348
  H   -3.50270035125836      3.65176011819474      0.02490205092721
  C   -4.43581528226922      1.86451771859521      0.81235963158608
  H   -5.04909895140638      1.70370646087051     -0.07192406995050
  C   -4.50144607135803      0.96850186099431      1.88849547099288
  H   -5.16586786967946      0.10823971556696      1.83876289335723
  C   -3.70640930849000      1.17492661869588      3.02467710407244
  H   -3.74589900751845      0.47211014526775      3.85463835420666
  C   -2.85613940127276      2.28314548184944      3.09274407738163
  H   -2.23026112150654      2.44235796869502      3.96980309631127
  C   -3.24723195812317      5.29229731855633      3.81587084469708
  H   -3.02861887698656      4.76564794044387      4.75171228330881
  H   -4.03475775477415      4.74218410125936      3.28918175542560
  C   -3.73001696900092      6.72485820325177      4.13101052028847
  H   -4.81248754295225      6.68577594025135      4.30743684281467
  H   -3.27157870304253      7.08782993647852      5.06202579592135
  C   -3.43652804447408      7.72775047292092      3.01009937941492
  H   -4.10899628708860      8.59582265490724      3.06687604946517
  H   -3.53446036250503      7.27532310354716      2.01619116499008
  N   -2.02821865295718      8.21265406008580      3.14191998569656
  H   -1.95940085098442      8.70164591692352      4.04520856168176
  C   -1.61593364407330      9.17011165697666      2.06827761617864
  H   -2.43013543259775      9.89524304576311      1.91837349449170
  H   -1.48882419808051      8.58227034120608      1.15447878914112
  C   -0.32667872735946      9.90446443017338      2.44506431522826
  H   -0.50389691719187     10.53735042557287      3.32897363111296
  H   -0.06797198135577     10.58007988147302      1.61869176553739
  C   0.87863075758918      8.98504455916806      2.71665225131491
  H   1.08503429170042      8.36468165113573      1.84310231754911
  H   1.75517705534391      9.59517838730691      2.94861992531924
  C   1.03812603069739      8.37255697866995      5.03849671502254
  C   1.97709132557716      9.52949646809610      5.21916958281449
  C   1.48307839663887     10.77936981234660      5.63202451132878
  H   0.41749604543393     10.90577392729552      5.82037775935071
  C   2.36242503711595     11.85335467441296      5.81579231001700
  H   1.97533308761267     12.81875144749565      6.13587666939380
  C   3.73591518259861     11.68169932435964      5.59827310137376
  H   4.41857692916010     12.51603358592102      5.74598060180151
  C   4.23144459738667     10.43292267019049      5.19894752307949
  H   5.29879600195460     10.29404201439831      5.03862666442692
  C   3.35706899311358      9.35602645068398      5.01046060884690
  H   3.73949872965582      8.38295774551730      4.70621323046074
  C   0.69288139911542      7.62475404533815      6.23942497514493
  C   1.28136871617860      7.98767871198037      7.47774897035183
  H   1.98647456360980      8.81094249128059      7.51685428803700
  C   0.96174255764631      7.29090066980939      8.63345823754861
  C   0.05871530877869      6.21323348291737      8.61936038274528
  H   -0.17655899074514      5.68017282409323      9.53653168905816
  C   -0.52502838285742      5.84205103209045      7.41433604323357
  H   -1.22274662875473      5.00942342356699      7.36395090554012
  C   -0.22429189894533      6.53153561036045      6.21603939556460
