71
Coordinates from ORCA-job BAZPIE-OH_1_1_tpss_d4_lanl2dz_631gpol_Fe3.opt
  Br  1.48027970540844      1.86648992782891     -1.09154252214997
  Br  2.38164951901250      6.45337397088812      9.75813168418630
  Fe  -0.93590523313186      6.94418788923681      3.40597451794072
  O   -0.41920156334653      6.94960824199649      1.63201253339834
  O   -1.54535221111071      7.05225075528163      5.15987867609721
  N   -2.14033600924086      5.45531428229264      3.06349398977552
  N   0.34813076598549      8.36065581096274      3.79834602266592
  O   0.28455547840183      5.67809471168439      3.85151651613242
  C   -0.08253233942418      5.82115054085775      1.03212210670554
  C   0.84061506294907      5.89397786303860     -0.04226502824437
  H   1.20659200996553      6.87432068658965     -0.33858932921154
  C   1.29859932602857      4.74241294112463     -0.66720806516988
  H   2.03108897044063      4.79993840460500     -1.46767217351005
  C   0.81105704585471      3.49336396189678     -0.23668787645758
  C   -0.14745615816018      3.38802613335977      0.76398895457959
  H   -0.53077365148649      2.41518811643321      1.05387367403240
  C   -0.62850843668516      4.54720467224929      1.41057216604773
  C   -1.78423579007283      4.44864948517191      2.30162065479443
  C   -2.56918750149913      3.18024138722316      2.27309571656461
  C   -3.21928627994642      2.76424096992076      1.09615138741849
  H   -3.16189125022178      3.38088835945478      0.20046154556794
  C   -3.93928828060425      1.56494183989669      1.08294328199010
  H   -4.44996701614363      1.25154861025799      0.17461594439051
  C   -3.99358343550986      0.76571833022881      2.23346375533161
  H   -4.54516321890903     -0.17220270119532      2.21762373357562
  C   -3.33250593439022      1.16896545401418      3.40221241323450
  H   -3.36347811638182      0.54282189424503      4.29170088386599
  C   -2.62706585162967      2.37666812780260      3.42801879927209
  H   -2.10427744131941      2.69507314117221      4.32872438614045
  C   -3.41681414042836      5.47194253101496      3.79132190307606
  H   -3.17043014792410      5.57053170487033      4.85129843223082
  H   -3.95493654014635      4.53322306441942      3.63758253156198
  C   -4.29297182601907      6.67600607546606      3.33481165227443
  H   -5.19251274147132      6.29644325925269      2.83332536997059
  H   -4.63539706826075      7.23568956519519      4.21609210662062
  C   -3.61528028136225      7.63405093024067      2.35464904973331
  H   -4.33816559168426      8.40330547519191      2.04255152156658
  H   -3.26961144959948      7.10718170848045      1.45687116098441
  N   -2.41632033076572      8.30217658603424      2.93864830909915
  H   -2.66688654325185      8.68397170038699      3.85996233537394
  C   -1.96450988519821      9.41460907751678      2.05488719324909
  H   -2.81720690207292     10.08539894037902      1.86663164688776
  H   -1.67275728654466      8.95511624963199      1.10341251317889
  C   -0.80097276864527     10.20943340999099      2.64616130858741
  H   -1.07841048091275     10.62898418118047      3.62529962054763
  H   -0.60842308806795     11.06051628336925      1.97842521609548
  C   0.50788687763322      9.41409209092187      2.78297716873938
  H   0.75269940030809      8.92887399478744      1.83188775606223
  H   1.32003667511610     10.09148023262187      3.06072695005604
  C   1.02036849582832      8.39088831967770      4.93218437157974
  C   2.14452541118680      9.34651334385060      5.15493239599420
  C   2.07962179426384     10.27627494670126      6.21063905150866
  H   1.19982547657030     10.30296509649592      6.85127362200882
  C   3.13876438901522     11.16311614238112      6.42917087471059
  H   3.07818185620565     11.88671298323354      7.23952708463660
  C   4.27764479914859     11.11240524883112      5.61366712977447
  H   5.10554262750400     11.79548172226812      5.79261584447121
  C   4.35509530292133     10.17670568085019      4.57223905192826
  H   5.24438576535372     10.12605002642870      3.94721939490120
  C   3.29036860646064      9.30097489818275      4.33707309488513
  H   3.34999864235644      8.56874915590891      3.53232936719181
  C   0.65243246639082      7.52160688879669      6.04720590475928
  C   1.54250298546316      7.35605334482121      7.13288083097550
  H   2.55564736362100      7.73881505512352      7.06202100346348
  C   1.11962800424733      6.70394671409284      8.28297135653115
  C   -0.20110793337333      6.23498704795691      8.42361501238149
  H   -0.51445090673739      5.74591071750848      9.34194329916302
  C   -1.09000240983754      6.39174074031859      7.36929376155229
  H   -2.11144212285581      6.02610205140899      7.44182777976004
  C   -0.67462230690748      6.98320775667945      6.14943152082556
  H   1.18161364763953      6.03800124901097      3.67536615213678
