75
Coordinates from ORCA-job BAZPIE-CH3OH_1_4_tpss_d4_lanl2dz_631gpol_Fe3.opt
  Br  1.23798232578848      1.76710289520339     -1.08996864275201
  Br  2.71920355665997      6.88177111159361      9.76275351959757
  Fe  -0.97748511956091      6.99047234451654      3.49737176940285
  O   -0.42127458210151      6.91268037037560      1.73334604402914
  O   -1.41813715532448      6.98292049771892      5.28944309348162
  N   -2.15900981352311      5.45825148214754      3.16569746419746
  N   0.25254530880062      8.47549395658055      3.86557076501086
  O   0.71537169338628      5.51412041677676      4.00590800978898
  C   -0.10502186302792      5.76937800761434      1.13101069369164
  C   0.90716716503590      5.79262727528275      0.14296930502170
  H   1.38203624482757      6.74428765237280     -0.08456873920662
  C   1.29784814096638      4.62905541323896     -0.51167620515936
  H   2.08725383332459      4.65578363254007     -1.25815731955681
  C   0.66517967026830      3.41521632556239     -0.19062316115659
  C   -0.36183867163387      3.35964992440636      0.73876216419881
  H   -0.85489536883825      2.41749646427085      0.95796365219139
  C   -0.76993969467778      4.53484851932662      1.41695112467736
  C   -1.92833180076241      4.49370816569484      2.29999496415491
  C   -2.87976466174997      3.35346110554698      2.14569390601963
  C   -3.54572583312641      3.15882640862528      0.92119088679048
  H   -3.35876131617565      3.83972975618559      0.09240115321626
  C   -4.44401149488776      2.09626708393363      0.77428447890856
  H   -4.96353799150680      1.95596184304494     -0.17142274929863
  C   -4.66497155398364      1.21014955837867      1.83746602112537
  H   -5.35640151217687      0.37848197283433      1.71794756059761
  C   -3.98818240749228      1.38810167941962      3.05229570527388
  H   -4.14643283132710      0.69217700593638      3.87377782478921
  C   -3.10242183528543      2.45909307538819      3.21025842486101
  H   -2.56945522741215      2.59710699277853      4.15053843662242
  C   -3.47147746056697      5.61077803969749      3.82452270218319
  H   -3.27666342900210      6.08619001432929      4.78859237414135
  H   -3.93819215664595      4.63794756520504      4.00380327130093
  C   -4.40474022776550      6.48780566210100      2.95398209232661
  H   -4.94961427641582      5.85047992721150      2.24450187048310
  H   -5.15393374482595      6.94743848156772      3.61430800262645
  C   -3.68202288600778      7.56121927812656      2.13132514418836
  H   -4.42860291949647      8.23918619718688      1.68595305931504
  H   -3.12410645555271      7.09560440413172      1.30841513400330
  N   -2.67701595243101      8.33483402729582      2.90964674071501
  H   -3.10204910947953      8.67470077056626      3.78090243001485
  C   -2.21075159727875      9.50057089739206      2.11270785948474
  H   -3.05724116886206     10.17826727174812      1.91192739014616
  H   -1.86963653730246      9.09783725791692      1.15015468010360
  C   -1.06997376041187     10.27405891076037      2.77697510023015
  H   -1.35080208063396     10.59433809588302      3.79165981309793
  H   -0.90947971591787     11.18959817098577      2.19031927603624
  C   0.27574326732511      9.52293350623526      2.82677758315246
  H   0.46857201467235      9.03175121347367      1.86629809306226
  H   1.07983988094549     10.23540615914905      3.03072767122515
  C   0.95123892551991      8.60342462168359      4.97655127050774
  C   1.98413247454902      9.67167861086418      5.13032488640376
  C   1.83906743461057     10.65463265596294      6.12705771552208
  H   0.96406840228071     10.63949229259589      6.77465918288466
  C   2.81412249605966     11.64637551213648      6.27944638489979
  H   2.69155270143014     12.41029678279959      7.04453821190542
  C   3.94849117157490     11.65002405660721      5.45621019013251
  H   4.71061219145373     12.41636752097865      5.58324884636635
  C   4.10622891623374     10.66232265883889      4.47384429179145
  H   4.99243098757680     10.65545209747840      3.84219517957874
  C   3.12535006165776      9.67934258660028      4.30534524202755
  H   3.24584296350556      8.90841475769908      3.54500525591139
  C   0.72066887011702      7.73583072184710      6.12402091966755
  C   1.66291249199271      7.68866215434483      7.18014261328679
  H   2.60478395804852      8.21948474287304      7.08364123295209
  C   1.38320590873614      6.95954350116830      8.32605403907684
  C   0.16166079214754      6.28300120616729      8.48641473099731
  H   -0.04593247909332      5.73407316707106      9.40109541285363
  C   -0.77313003513808      6.31577631555280      7.45618849676559
  H   -1.72480751833129      5.79794211991567      7.55122764004880
  C   -0.50202749078082      7.00762061227634      6.25395623575902
  C   2.09038195218841      5.52043243634268      3.56689572376399
  H   2.23580240067633      6.48612379985971      3.07751307961543
  H   2.76879074389465      5.43243517672815      4.42493774008173
  H   2.27545376966388      4.71528617218409      2.84506304550379
  H   0.49403902059591      4.64446693116467      4.38961199334010
