69
Coordinates from ORCA-job BAZPIE_1_4_tpss_d4_lanl2dz_631gpol_Fe3.opt
  Br  1.50864555032722      1.57495627812410     -0.78302111559896
  Br  2.96574122704877      6.47150841959141      9.61356845376550
  Fe  -0.95484347198774      6.97894527746333      3.52021870275998
  O   -0.20947292201271      6.79314718828298      1.86201433238736
  O   -1.32817091607714      6.86819085963250      5.30839471145224
  N   -2.07391058600229      5.41373135505400      3.18160891990970
  N   0.29054365563190      8.43021567078112      3.92146361252306
  C   0.13439031619609      5.62523754614406      1.31329505389512
  C   1.22595318883449      5.61205511425522      0.41590578245080
  H   1.74760511633896      6.54682331439929      0.22465420005967
  C   1.62741023331370      4.43204135257903     -0.20121600303675
  H   2.47480554392298      4.42757390372612     -0.88148818826864
  C   0.92861929314999      3.24240141242296      0.06996214904268
  C   -0.16387905934052      3.22321439907236      0.92331112369132
  H   -0.69679945131172      2.29705815389123      1.11448801590582
  C   -0.58651010252232      4.41561876637555      1.56119062813952
  C   -1.79159575249850      4.40981098316847      2.37841951661636
  C   -2.72543282732769      3.25274991687734      2.24056484648179
  C   -3.37433546807134      3.02003738006704      1.01383621675303
  H   -3.18664165482848      3.68199422421874      0.16986693246146
  C   -4.25561908429423      1.94092278728386      0.88356701672809
  H   -4.76170298419085      1.76891967885879     -0.06418163374108
  C   -4.47620620270179      1.07895140836088      1.96637788737455
  H   -5.15445213406552      0.23473906269740      1.85992499223725
  C   -3.81555284658661      1.29647612109654      3.18367030084212
  H   -3.97305112984872      0.61877942946302      4.02026892247178
  C   -2.94589951542627      2.38300120850011      3.32553396703946
  H   -2.42229459465831      2.55151013446197      4.26578247860912
  C   -3.40696967692782      5.55925695359834      3.80018249875634
  H   -3.24907756848865      6.05751245864177      4.76038506227771
  H   -3.86151268228190      4.58271272539467      3.98955750109359
  C   -4.32658167092482      6.39716805144685      2.88014119340590
  H   -4.81965296462600      5.73460920760051      2.15611743993270
  H   -5.11703673345629      6.84271771856918      3.50061885331844
  C   -3.59569053132463      7.48081467864415      2.07816727547701
  H   -4.33376904005737      8.15508973354035      1.61528061103539
  H   -3.00844805209150      7.02547110025058      1.27050442539062
  N   -2.62241481644739      8.26500974372223      2.89125372249347
  H   -3.08322943383442      8.60038316766653      3.74643622322273
  C   -2.14187908243162      9.44296985002927      2.11626174690421
  H   -2.99204400208615     10.10679687729542      1.89029228292733
  H   -1.76070522955655      9.05126703690753      1.16399436506943
  C   -1.03890451138744     10.22620576857125      2.83085783864254
  H   -1.35956297769477     10.52171563789674      3.84116248856235
  H   -0.87935922259985     11.15553144901583      2.26635246549193
  C   0.31950308909846      9.50284251265212      2.90935348573523
  H   0.55702910220394      9.03829408402403      1.94435814116320
  H   1.10263831975357     10.22552756301210      3.15487258016644
  C   1.04769675763094      8.48132883322011      4.99998657169952
  C   2.11192053103855      9.51527445261335      5.16032682948356
  C   2.04060624417234     10.43723486542174      6.22186632252085
  H   1.19958618105887     10.40066931471419      6.91227713742352
  C   3.04490472916616     11.39760734523176      6.38220416984035
  H   2.98001612974596     12.11527684786091      7.19743304627799
  C   4.13544055400362     11.42777826083248      5.50215515567860
  H   4.92147005019778     12.16844283541765      5.63525376198105
  C   4.21949599195850     10.49942741132655      4.45486917937685
  H   5.07258096632275     10.51235458941368      3.77937196872018
  C   3.20860929617070      9.54912715420360      4.27732114034365
  H   3.27238306727217      8.82152599975680      3.46906369433832
  C   0.85072769102304      7.54911311527178      6.10463825733288
  C   1.83064399110142      7.43126977292661      7.12079547824115
  H   2.77421938773081      7.95786909052660      7.02029096310870
  C   1.58395573341718      6.63916103671529      8.23215365653789
  C   0.36455247409852      5.95842551827206      8.39422757843116
  H   0.18688718231732      5.35426903372386      9.27984687479203
  C   -0.60586111606552      6.05630919946467      7.40225135644002
  H   -1.55593221354240      5.53601641683207      7.49691748543056
  C   -0.37147936466887      6.82111124092472      6.23821734798187
