48
Coordinates from ORCA-job BUDHOY-OH_3_6_tpss_d4_lanl2dz_631gpol_Co3.opt
  Co  0.04732853934259      0.00879601697732     -0.03386098727122
  N   0.34045807054243      1.68033540546106      1.26352074002487
  N   0.42427497024675      3.81786629777946      1.83453832585936
  H   0.54113629455759      4.82867715338956      1.75923911937722
  C   0.01610359433366      1.79505263774207      2.60025275226832
  H   -0.21673589559315      0.93237179499180      3.20903461112036
  C   0.57990798463946      2.92358989026210      0.82099610579729
  H   0.82554463326410      3.19912736484622     -0.19527536584051
  C   0.07213407376649      3.13517809302651      2.97328673995223
  H   -0.10430007411654      3.63109394834885      3.91933727006507
  N   -1.60172222835459     -0.58758367533975      1.26110197295272
  N   1.36253517567457     -1.19286389151475      1.17125370690827
  N   -0.18311264419688     -1.75508393939653     -1.28115750702679
  N   1.79052005967145      0.61286462889027     -1.20314131672986
  O   -1.09773783882655      0.92950985580755     -1.08200649525115
  N   -3.57389236393168     -0.38540850589740      2.25507738758712
  N   2.46687834905285     -2.88502250148676      2.07519021484518
  N   -1.09509825046388     -3.40340536313030     -2.44465710951748
  N   3.79374407842838      1.26878519750870     -1.89414419785315
  H   -4.47673263252476      0.00290205109049      2.52880953361647
  H   2.77286533408784     -3.83836635500247      2.26798222263442
  H   -1.79760238745416     -4.04253931862485     -2.81688140847537
  H   4.77664918029859      1.54017461608731     -1.86957345894636
  C   -1.82784317563198     -1.70557741914046      2.02788781690881
  C   2.24863027738612     -0.70136664294068      2.11905282938828
  C   0.79555747395598     -2.34730904497915     -2.06032257438487
  C   1.75775368520375      0.78900152377401     -2.57149643379455
  H   -1.11102248351816     -2.51132704505920      2.09940713241055
  H   2.32139004707453      0.35334632201181      2.34177171056060
  H   1.82225369065186     -2.01083146172542     -2.04124579970564
  H   0.85827258290109      0.62968107889947     -3.14897995806374
  C   -2.67987150206249      0.20096349562446      1.41252704320921
  C   1.52136629067157     -2.52525209862924      1.17058507764332
  C   -1.32054109220723     -2.41713669649465     -1.53506774496021
  C   3.03828735992006      0.91479300471951     -0.81696699952961
  H   -2.83643460491461      1.15451677681785      0.92664123083891
  H   0.99654490871719     -3.22984684355909      0.54224663920928
  H   -2.28892571363281     -2.21209985976863     -1.09983965698916
  H   3.42159082051451      0.87401861384425      0.19248081985754
  C   -3.06472282239997     -1.59372562403388      2.66151061895298
  C   2.94378804929040     -1.74945947577421      2.69140993542086
  C   0.23449226038437     -3.38269488949333     -2.79467843275293
  C   3.01055385429767      1.19887029109191     -3.01873196210226
  H   -3.59140264070180     -2.25181411928042      3.34100289058377
  H   3.70452893743041     -1.78018417094922      3.46055583508152
  H   0.65799855939100     -4.07554481695275     -3.51050783573790
  H   3.38123506927880      1.44142219965894     -4.00659644817625
  H   -1.49394585444483      0.72298550052171     -1.95580858996554
