46
Coordinates from ORCA-job BUDHOY_3_5_tpss_d4_lanl2dz_631gpol_Co3.opt
  Co  0.34768415394470     -0.12631065268756      0.34116197640481
  N   0.47228162602667      1.65968065634300      1.42743924626030
  N   0.58044543490523      3.77646787133486      2.06247982736090
  H   0.69200002582369      4.78923065399499      2.01362193531781
  C   0.24086877974882      1.73364401712370      2.79561879201584
  H   0.04416474674278      0.85119731104568      3.38957021316402
  C   0.67000243977605      2.91878896936401      1.01116903400959
  H   0.85549734706360      3.23494597000992     -0.00617736720073
  C   0.31192788759518      3.05569845294733      3.20238184790997
  H   0.19860430510106      3.52211443007107      4.17245136141412
  N   -1.59593347003964     -0.47265603968081      1.04865249803033
  N   1.58867610262430     -1.32132036530246      1.50898291322451
  N   0.02506220479526     -1.85113307045532     -1.01290774226542
  N   1.47277625960694      0.60962977960600     -1.29239534330136
  N   -3.64675998189126     -0.13572662192760      1.81050771763549
  N   2.56776848909985     -3.02898883027905      2.52516488248755
  N   -0.83914320667461     -3.26522071575300     -2.49515936558030
  N   3.16043883931417      1.44211636333949     -2.46480305589446
  H   -4.51483074607214      0.34155654104275      2.05407109124234
  H   2.79035915564698     -3.98662828612995      2.79689939061707
  H   -1.53166306879188     -3.78177339590970     -3.03800567458037
  H   4.07034421066838      1.84770602886955     -2.68416456029502
  C   -2.10717595389938     -1.67450404640690      1.51155401201230
  C   2.54152209799143     -0.83526579985369      2.38526369459719
  C   1.05027203558145     -2.48857047550576     -1.68249965268999
  C   1.14406009191571      0.58034850615274     -2.63472385157939
  H   -1.52793129958978     -2.58659510304928      1.49500977970757
  H   2.72428698963273      0.22360792351200      2.50655345650805
  H   2.08983129872596     -2.27786807556331     -1.47045970326628
  H   0.18897513687665      0.21380815873116     -2.98416322243605
  C   -2.55732219167516      0.44455160450143      1.24631049254883
  C   1.62770110780916     -2.66093306372718      1.61746777195713
  C   -1.11119674402583     -2.33446570199820     -1.53319353962416
  C   2.70634820585241      1.13730343832912     -1.21981310665925
  H   -2.50191731892031      1.49328027979573      0.98852764048153
  H   1.01241880613501     -3.36102883477208      1.07099257883454
  H   -2.11486109537574     -2.03814555815538     -1.26035732259743
  H   3.28376115415031      1.29278116838655     -0.31835704705886
  C   -3.39099104111366     -1.47552386965753      1.99316252315602
  C   3.16275281942590     -1.89645620249802      3.02873242108327
  C   0.52048156428208     -3.38465282149716     -2.61208376343226
  C   2.19229706924024      1.10471920799287     -3.37989653099509
  H   -4.10779833087227     -2.14772826548692      2.44678961932204
  H   3.94756085582861     -1.93215837213797      3.77338587088525
  H   0.98995441103029     -4.06873394310050     -3.30781798720709
  H   2.31549879598002      1.26291077904144     -4.44364375152490
