47
Coordinates from ORCA-job BUDHOY-oxo_3_5_tpss_d4_lanl2dz_631gpol_Co3.opt
  Co  0.12359571691340     -0.08123560983376      0.07803361197645
  N   0.34524848024328      1.69903179095502      1.31591317820308
  N   0.35678151383599      3.86240167539927      1.79823328334911
  H   0.45827285958588      4.87154336705576      1.68425766294865
  C   -0.02328880109715      1.86065449887477      2.63271585375997
  H   -0.25150581909519      1.02120756251889      3.27552318348266
  C   0.56242042581187      2.92742883452317      0.82688164115935
  H   0.83755251276818      3.16806736033486     -0.19090528846129
  C   -0.01158880528876      3.22113122771267      2.95143287207498
  H   -0.22693908661725      3.74876360422806      3.87222489889260
  N   -1.47925863282659     -0.63162476569429      1.25582032571322
  N   1.38006354353441     -1.10942503056791      1.25971541787232
  N   -0.14272941142652     -1.82888523711485     -1.20955688842995
  N   1.70803862346928      0.47931330067110     -1.12141421348764
  O   -0.89120921417958      0.75711063080796     -0.87892969556257
  N   -3.48804665039127     -0.48032251122452      2.16106271733491
  N   2.51246811726698     -2.76071714600047      2.18219695752832
  N   -1.17873904287157     -3.16464418435777     -2.64454873026771
  N   3.67319340796480      1.03052698780492     -1.96273706931391
  H   -4.41094166411733     -0.11561469340826      2.39821351334986
  H   2.84465413679307     -3.70357232627299      2.38313690522923
  H   -1.93086182259343     -3.65910183192706     -3.12561103367242
  H   4.67088575193886      1.23599369120751     -2.01893010539655
  C   -1.70475608925579     -1.76266248416166      2.00829400427436
  C   2.23123824766041     -0.58338925354302      2.22652605938587
  C   0.79477763623899     -2.39888660804695     -2.04257252734815
  C   1.55220244724180      0.73345716842213     -2.47101465110945
  H   -0.97150459087613     -2.54885925586465      2.11108582372558
  H   2.27056086227358      0.47421345505676      2.43916822818041
  H   1.85188945466363     -2.19272142420062     -1.94840951826257
  H   0.58641537014751      0.68092559312683     -2.95486308980080
  C   -2.57992117322089      0.13365440385628      1.35969397228749
  C   1.57845287670010     -2.43820901965518      1.25756199096198
  C   -1.33425269713075     -2.30159681100464     -1.60106120255842
  C   3.00303741888994      0.66823256527452     -0.83484389610050
  H   -2.74169906358913      1.08120498747182      0.86426485343056
  H   1.08330218189998     -3.15629955281292      0.62119347854377
  H   -2.29384816745771     -2.03840617592317     -1.17850153033538
  H   3.47217165839041      0.54322318224649      0.13077194649970
  C   -2.96620940878251     -1.67917444451489      2.58541278663225
  C   2.94169791652949     -1.60869550658779      2.80808593676490
  C   0.15503745666539     -3.24853888056496     -2.94733104149638
  C   2.78519129502621      1.08046562292615     -3.00979845673549
  H   -3.50387424164070     -2.35115919646885      3.24219898652569
  H   3.68840274223004     -1.61724367746985      3.59116404242273
  H   0.53706761433184     -3.87868516916804     -3.74071064635576
  H   3.08045411344288      1.35551928591414     -4.01434454781507
