46
Coordinates from ORCA-job BUDHOY_3_3_tpss_d4_lanl2dz_631gpol_Co3.opt
  Co  0.20937564732987     -0.19526509953318      0.18332720445179
  N   0.26289382928384      1.52856314603937      1.08257110888374
  N   0.44465079752680      3.67579875401166      1.49629414642982
  H   0.57845795986788      4.67639700068643      1.34835236840271
  C   0.04652047585274      1.73328286340579      2.44868514583540
  H   -0.15806366788773      0.91408869429906      3.12297087900055
  C   0.50751442088669      2.73402560665873      0.53400296897275
  H   0.71449138933650      2.93455334061733     -0.50771244925433
  C   0.16583915713240      3.07411478133346      2.71170012367697
  H   0.07676369895639      3.63986575821836      3.62984935902014
  N   -1.41752933972498     -0.64425683171120      1.15370474469153
  N   1.51879333789692     -1.20620382537281      1.43675254076767
  N   -0.15823557672763     -1.62317548610524     -1.08498222745627
  N   1.59198526966973      0.45024052436852     -1.02970322129614
  N   -3.42867038038903     -0.46725797340274      2.02635463072215
  N   2.64812504793832     -2.83844680614921      2.40830020053991
  N   -1.21791281300323     -2.94185680440540     -2.49086042604942
  N   3.47918116006341      1.12235052924926     -1.91634617559480
  H   -4.31750609625263     -0.06373236587850      2.32361423544961
  H   2.97251477912200     -3.77558262032542      2.64800924133123
  H   -1.97606915445124     -3.40431331849086     -2.99363823050458
  H   4.47272765496025      1.32579903100900     -2.02361125042374
  C   -1.77641117740603     -1.87934442325565      1.67417303212395
  C   2.40048057403197     -0.65203610353376      2.35093771160536
  C   0.78876881992699     -2.31961791560966     -1.82976649835168
  C   1.32931278429283      0.90356141125180     -2.32136907877642
  H   -1.12008710568441     -2.73489674896117      1.63256578974759
  H   2.45250965533554      0.41389266526325      2.52488916199702
  H   1.84900765454426     -2.17244695621021     -1.68600570800264
  H   0.33867552620166      0.87578692635757     -2.75444340204870
  C   -2.44851411718010      0.19740628576686      1.38083408694716
  C   1.69836208193055     -2.54305443552594      1.49659938614344
  C   -1.37527780526756     -2.02572966544498     -1.51903554841652
  C   2.90671223435580      0.59736280384953     -0.80991797894996
  H   -2.50264398366024      1.23739270399679      1.09205842843390
  H   1.19347497229479     -3.28219658650085      0.88996486875960
  H   -2.33110976066569     -1.67316034136615     -1.16062037525539
  H   3.43896259177453      0.34096389441822      0.09412343319579
  C   -3.03032660740226     -1.77590721718664      2.23146521581589
  C   3.10838200539057     -1.66030487001600      2.96919012907187
  C   0.13592023476919     -3.15294655283655     -2.70393831773538
  C   2.51061142864678      1.32734686314203     -2.88017137988512
  H   -3.64940342289075     -2.49470930263517      2.75254273816987
  H   3.86491867288192     -1.64552494088536      3.74325451078871
  H   0.50105269911008     -3.86196921995656     -3.43562435820746
  H   2.73987444728227      1.73484282735623     -3.85604076476757
