48
Coordinates from ORCA-job BUDHOY-OH_3_2_tpss_d4_lanl2dz_631gpol_Co3.opt
  Co  0.15493910595022     -0.09649083142498      0.05215451286711
  N   0.31995002501719      1.52276772199675      1.13586443800041
  N   0.32835356891510      3.68116118716788      1.55300335741529
  H   0.41924406439758      4.68737338675602      1.41099180899805
  C   -0.00250066418798      1.70772445082282      2.47040520049632
  H   -0.20049717215600      0.88133657028936      3.13806943764605
  C   0.50321373913612      2.73777689162538      0.59640059652195
  H   0.73417257464406      2.94812567477021     -0.43734938428774
  C   0.01309879774256      3.06465700441737      2.74253363663617
  H   -0.16200964028576      3.61572351391964      3.65758065275894
  N   -1.38262690119409     -0.60035746384013      1.15718778700809
  N   1.36947229244608     -1.13597980869870      1.20519256800674
  N   -0.14074850562723     -1.61480922857839     -1.15056384436979
  N   1.65577502598684      0.48528745871824     -1.05802404583790
  O   -0.99647907121256      0.89791385430683     -0.93947680163550
  N   -3.38629174743432     -0.42093542554760      2.04517919238739
  N   2.48484225633832     -2.82938780333985      2.06771231479005
  N   -1.16372818886875     -3.15082420015481     -2.34649410820403
  N   3.65732532260332      1.03348248838644     -1.77889337986234
  H   -4.31578489957246     -0.05763790564158      2.25832513546895
  H   2.82708708203026     -3.77825497649103      2.21922110329875
  H   -1.90571029247710     -3.74351646793044     -2.71920165409777
  H   4.66794796510357      1.16985465196548     -1.79854831864396
  C   -1.56720688437485     -1.66276045699029      2.01902574545999
  C   2.16177407013228     -0.66292268411330      2.24677485607379
  C   0.79362085471741     -2.21373691859597     -1.99140687552579
  C   1.53271429322713      0.99875949874725     -2.34403384789229
  H   -0.80959734347189     -2.41095080502052      2.19588386573562
  H   2.18202030722331      0.37829381526782      2.53071575301202
  H   1.83079123916449     -1.91531038709968     -2.00386306637205
  H   0.58412664209168      1.08058607440758     -2.85173158463749
  C   -2.50196170182884      0.15095919107540      1.19477442013575
  C   1.59290649140478     -2.46276211296295      1.12248696452147
  C   -1.32511683909086     -2.20541159122731     -1.39350734025501
  C   2.95978866284158      0.51702171131958     -0.74054014833370
  H   -2.66327901587132      1.06882401250310      0.64817889694926
  H   1.14435923153639     -3.14623471016814      0.41753766168159
  H   -2.26503899841269     -1.98335947518113     -0.91037924960781
  H   3.40438189159153      0.19170114442626      0.18810549354534
  C   -2.82822605960427     -1.56098371425212      2.57986419962810
  C   2.86286987982107     -1.71375928972589      2.78924788517817
  C   0.15869033004851     -3.17918897844686     -2.73839268404720
  C   2.78483483271945      1.34784205564311     -2.79976943558064
  H   -3.34573642014006     -2.18270699635793      3.29930153739679
  H   3.57532237976633     -1.76195809731362      3.60250816792782
  H   0.52505878614564     -3.85889480913711     -3.49666384830473
  H   3.11364128903836      1.78013730964055     -3.73591652688452
  H   -1.21710265597015      0.40330547006728     -1.76371104516575
