46
Coordinates from ORCA-job BUDHOY_3_1_tpss_d4_lanl2dz_631gpol_Co3.opt
  Co  0.23060184995653     -0.18312582686311      0.17574175411749
  N   0.32021087018383      1.49195414712120      1.13729683467490
  N   0.47468723423038      3.65419266676426      1.50250541946603
  H   0.62372738154286      4.65006001143832      1.33810920739998
  C   -0.00028870452094      1.73713959896056      2.47236119935985
  H   -0.27586214113222      0.94185593861562      3.15028579130422
  C   0.61340727137942      2.68521442547791      0.57647945893918
  H   0.90288233753462      2.85997482386707     -0.44990075693512
  C   0.09978865994288      3.08542178376574      2.70765138883458
  H   -0.06460687659355      3.67600240797734      3.59948158073502
  N   -1.34648276281988     -0.64501629890496      1.19007756694876
  N   1.40683099280352     -1.13588358814707      1.28865527451625
  N   -0.11558464240527     -1.63786419199574     -1.05163059348214
  N   1.63670828996792      0.41371853681990     -0.99453839408554
  N   -3.37633421639464     -0.48501582181036      2.01543082726048
  N   2.53571824764315     -2.77534207729401      2.19404883585111
  N   -1.22177112673258     -2.98103701136726     -2.39577017187968
  N   3.52335738821042      1.14518969527034     -1.83855606722935
  H   -4.28646004626444     -0.09667726521030      2.26387926981378
  H   2.88844352578293     -3.71502093931473      2.37800078809167
  H   -1.99793180549236     -3.46473651618030     -2.84810575621467
  H   4.50961564523813      1.39298037838280     -1.91821683690537
  C   -1.66303040020864     -1.84866856223344      1.81198529634609
  C   2.19061833194643     -0.60374747871509      2.31000860443506
  C   0.80128447326288     -2.29599394270000     -1.87116361325932
  C   1.40652098259351      0.79031144585012     -2.31831882466231
  H   -0.97410648105434     -2.67880098673623      1.84597539720661
  H   2.18417523317660      0.44396149622914      2.56672811699661
  H   1.86234976442487     -2.10264449248937     -1.81352278975584
  H   0.43705242038648      0.69518555269993     -2.78856310819277
  C   -2.41139779049993      0.16936355621987      1.33644069053748
  C   1.63751365169006     -2.46123793908538      1.23698161353209
  C   -1.34240082259999     -2.08562070204251     -1.39671571551063
  C   2.93453031597798      0.64009793138498     -0.73265890271532
  H   -2.49819526391723      1.18666158981253      0.98156823365974
  H   1.20017226255035     -3.16751091140758      0.54829400272077
  H   -2.28231568737328     -1.79209919017126     -0.95441202194742
  H   3.44407003081425      0.45266133798201      0.20118765417306
  C   -2.92889878348256     -1.75459890014911      2.33450007092343
  C   2.89902631593933     -1.63393523835759      2.87859124695897
  C   0.11694041419580     -3.14001274721195     -2.70877775116916
  C   2.58543329194439      1.25453535779556     -2.84839671565534
  H   -3.53320751308265     -2.45747941730945      2.89270389604906
  H   3.60789910168870     -1.64569063819393      3.69644869042974
  H   0.45286296949627     -3.81132319900125     -3.48822816782414
  H   2.83154581006997      1.63630120045675     -3.83064252385792
