32
Coordinates from ORCA-job ADETCO-CH3OH_2_1_tpss_d4_lanl2dz_631gpol_Co3.opt
  Co  1.73454745220339      2.64507385792709      2.89352539991752
  Cl  3.86674765815015      1.98977012688961      2.61739232541987
  N   2.17410692996616      4.17247131848927      1.67465507454095
  N   1.34427955612792      1.13625899842184      4.06534985566447
  N   1.27323773101332      1.39658351712148      1.40419977196652
  N   2.34661798400926      3.56257547654298      4.54586916838601
  O   -0.20132365958553      3.17611407753248      3.13691543924615
  C   0.71531612588102      0.11061073421034      1.97806325733443
  C   1.44530680848930     -0.14559380529592      3.29269044729226
  C   2.15793397200196      1.25043255298572      5.32063980296607
  C   2.02999349481399      2.70724721230525      5.75413214606684
  H   2.83255081495480      3.83730367107471      0.95788763835525
  H   1.38867098074382      4.61609786726704      1.18184861781600
  H   2.67920634368917      4.92744124980799      2.15546899305080
  H   3.19090326405897      0.98610345534355      5.07397095904899
  H   1.77711310116129      0.56498654754702      6.08822572891268
  H   0.35309452392771      1.29266089264361      4.30514587725171
  H   2.18760062167737      1.19654758215124      0.97113553968798
  H   0.66876783395859      1.73711180266928      0.64441107542097
  H   1.00356341838371      2.93632585362715      6.06474997118808
  H   2.70520033640988      2.95261465433112      6.58153881037010
  H   0.98723131932205     -0.96851272939281      3.85575303029200
  H   2.50764288890130     -0.35751435284533      3.13552419261354
  H   2.00752252619481      4.52151766125328      4.69388801486435
  H   3.37018463733887      3.62612092645262      4.43910952530003
  H   0.84778012369789     -0.71214817526566      1.26641423468337
  H   -0.35906240301349      0.25653858742193      2.14315824951944
  C   -0.66199578241312      4.44794974470222      3.73524386127892
  H   -0.23320410254988      5.30080551258112      3.19910128009287
  H   -1.75397828756821      4.46658954825616      3.68543921927525
  H   -0.34535637701740      4.42884910996115      4.77866208916354
  H   -0.71905983492914      3.03419652328236      2.31722040301293
