26
Coordinates from ORCA-job ADETCO_2_3_tpss_d4_lanl2dz_631gpol_Co3.opt
  Co  1.80213646884336      2.59566710317206      2.89068171843477
  Cl  3.97056517806562      2.04947634653518      2.57182815028935
  N   1.64136046972321      4.25814903119714      1.74123877989171
  N   1.16385090171856      1.16437247552221      4.08769502744338
  N   1.27145624269630      1.35981475997429      1.41490913340443
  N   2.27279125941784      3.56819519496704      4.56405222680366
  C   0.63383966650064      0.10482255970546      1.98322148660152
  C   1.27488703569606     -0.14206669221183      3.34245807858042
  C   1.92432064400701      1.28853791028132      5.38453681299827
  C   1.83965935204893      2.75930334859732      5.77427035466236
  H   1.93841413299398      4.07043566851129      0.77424201578472
  H   0.69397018357373      4.65939044525659      1.68777087272603
  H   2.25979921238667      5.01127191249975      2.07105591066509
  H   2.95576887811511      0.97487965447412      5.18890537835829
  H   1.48295230238629      0.63476769428438      6.14750637897948
  H   0.16428294515455      1.34701673509060      4.27760471546547
  H   2.16401234741271      1.11970442642342      0.95613912313736
  H   0.66447845394675      1.75506625936327      0.68412710675706
  H   0.81008794047469      3.05110252982481      6.01231271983439
  H   2.47673466835399      2.99586770168439      6.63393036510810
  H   0.76910580994232     -0.94110310949538      3.89926119091910
  H   2.34156877917568     -0.37716997066325      3.25586005186128
  H   1.92039393101045      4.53130862652203      4.64757067350496
  H   3.30228289513119      3.63444314544383      4.53687904640275
  H   0.78128528040908     -0.73734547766596      1.29765831095548
  H   -0.44180497918477      0.29479172070587      2.07628437043046
