32
Coordinates from ORCA-job ADETCO-CH3OH_2_3_tpss_d4_lanl2dz_631gpol_Co3.opt
  Co  1.88385724373140      2.61277483897562      2.86616255424626
  Cl  4.09247738899783      1.89777322611728      2.58685790508205
  N   2.26794139704002      4.24253618563612      1.70446719052619
  N   1.34685863732390      1.12810038685091      4.05792818734542
  N   1.36660042514636      1.34538731671690      1.38881417078987
  N   2.45381780657833      3.53492883121504      4.55625258463560
  O   -0.28397161519237      3.27011215648031      3.09170339940597
  C   0.73739919249510      0.09597206504463      1.96819210265472
  C   1.41961396255383     -0.16686712739523      3.30511870415523
  C   2.12616297560791      1.23782024862787      5.33703389397298
  C   2.03818007587238      2.70263364100582      5.75173374646059
  H   2.43575485914173      3.97855229711993      0.72557342232092
  H   1.52649734668794      4.95325271299961      1.70088579135663
  H   3.13665604731146      4.70001375141642      2.00871516012837
  H   3.15669271509434      0.93448838126254      5.12218018458921
  H   1.70301270926923      0.57230233148133      6.10067778563158
  H   0.35893998212607      1.36250356025274      4.24513440931154
  H   2.28024112605032      1.10429736941905      0.97484516994107
  H   0.78730500826861      1.71448373206168      0.62355912713210
  H   1.00785966444067      2.98051798750129      6.00276681372469
  H   2.67930940651544      2.92613278650577      6.61216464551885
  H   0.92373652964637     -0.96778266783779      3.86870956272533
  H   2.47974698108431     -0.41323808220254      3.17855219874453
  H   2.16007194108415      4.51142313524324      4.68220469202739
  H   3.48245077214410      3.53951654214045      4.47969087204913
  H   0.85051160881549     -0.74524224615337      1.27467548727867
  H   -0.33322383928987      0.29264141929290      2.10086281224086
  C   -0.86317489422060      4.48328574250768      3.68834390770711
  H   -0.92240527238214      5.28617482857293      2.94524037921485
  H   -1.85770526136489      4.25556337675725      4.08373396465067
  H   -0.20096210503314      4.77066893690284      4.50739548785941
  H   -0.91911281554434      2.95240233548073      2.41715368657209
