26
Coordinates from ORCA-job ADETCO_2_1_tpss_d4_lanl2dz_631gpol_Co3.opt
  Co  1.59319807794565      2.64083866879732      2.91313315662763
  Cl  3.71198313736816      2.08882860265369      2.61738034829306
  N   1.87219545463660      4.21034903444237      1.72196917019318
  N   1.21254632795710      1.14251202352126      4.08640153144257
  N   1.09434859044061      1.41190434080965      1.44031191414234
  N   2.09684873786737      3.60888687643903      4.56530415064082
  C   0.60570388147544      0.08909202506312      2.00820506865748
  C   1.35308915763726     -0.14477832499845      3.31736066624495
  C   1.99768609668543      1.29406487839391      5.36298686972175
  C   1.80095364232152      2.74789720967488      5.78207958336350
  H   2.20622259352076      3.92629700252077      0.79102739642398
  H   1.03383223977306      4.79165145499983      1.56958247136446
  H   2.60426547905844      4.83854273867665      2.08009378593060
  H   3.04410466750309      1.06511218769844      5.13769101051766
  H   1.62714043046618      0.59675468005352      6.12454625317174
  H   0.21053925418574      1.25037515817716      4.32647651410201
  H   1.96106127497408      1.25058801340957      0.90523505973442
  H   0.40385903589688      1.77819530640883      0.76922214671828
  H   0.76268716681550      2.94241268566865      6.07640214444079
  H   2.45616471524125      3.03104274327069      6.61326804848083
  H   0.92492346756186     -0.97907696817803      3.88672827296955
  H   2.42181826090074     -0.32090762866140      3.16009892761822
  H   1.66697900392186      4.53763018684761      4.68384047079908
  H   3.11408061485449      3.76617716269294      4.50074104556657
  H   0.77577289714413     -0.71713552796801      1.28613935348932
  H   -0.47380420615323      0.18344546958597      2.17577463934516
