62
Coordinates from ORCA-job ELUXUG-CH3OH_2_4_tpss_d4_lanl2dz_631gpol_Co2.opt
  C   8.96945087266218     11.54060832262781     12.98128165031338
  C   8.55895010171399     11.57080430497825     14.32251260966369
  H   9.18324081212368     11.13499005409567     15.09873906148090
  C   7.36325049390364     12.21500919590798     14.63844294850013
  H   7.02582035119387     12.26743741461473     15.67081178302149
  C   6.60219827769771     12.79041235931583     13.62070359243896
  H   5.65337843915898     13.27600655135291     13.83606417285391
  C   7.06394651608169     12.68398543989882     12.30100688864688
  C   5.92597576545955     12.57964835787126     10.07010422108876
  C   4.57136019668931     12.49109345015665      9.72873531439924
  H   3.80762061950782     12.89216641842940     10.39049354029179
  C   4.22783807891657     11.83301821458632      8.54494892353483
  H   3.18395496460234     11.73329645509247      8.25732721003194
  C   5.23132655409005     11.30679310199895      7.73577667469996
  H   4.99287594433953     10.81274402850795      6.79688887026146
  C   6.56959604790296     11.46910505722307      8.13242459328942
  C   7.91024556625198      9.16269909491717     10.52054686584389
  H   7.12164245711742      9.75355978915656     10.98185070180642
  C   7.86951772077204      7.76778274161644     10.52023299759525
  H   7.03545498759103      7.24923998706552     10.98666446804969
  C   8.91657361916275      7.06330715617248      9.91278222625639
  H   8.91548782790557      5.97559392398028      9.89520510496108
  Co  8.90065173737784     12.02071270492695      9.99017803786344
  N   8.23449960281403     12.08045008970940     11.97593682650786
  N   6.27932765229639     13.23512191788522     11.26946426630256
  H   5.47298757108596     13.72148519670963     11.65884418120459
  N   6.92114991688983     12.08478942967308      9.28985398425990
  N   7.57420554637966     10.97646669982717      7.29588522903965
  H   7.18255684015760     10.49523081321691      6.48893862198446
  N   8.91967318050467      9.86288975536081      9.95704341352494
  O   8.95459517156634     14.15338942973881      9.94503151285975
  C   8.79970646540024     11.58932050319816      6.98054985070401
  C   9.17104450332122     11.67125488835999      5.63232469036763
  H   8.51243617076947     11.29205345315837      4.85483564257301
  C   10.37917682936608     12.29451453467552      5.31389138760103
  H   10.68968775411521     12.39030998861494      4.27629160048100
  C   11.18504870146646     12.78912779457490      6.33589561919450
  H   12.14368701497071     13.25425033960239      6.11845692107408
  C   10.75871209088861     12.62931571659040      7.66581615573313
  C   11.90536269232087     12.47113570040823      9.91150338807717
  C   13.25138432349566     12.40240839109478     10.30401216671311
  H   14.03293411606513     12.79427949358641      9.65756694060339
  C   13.56233872159368     11.77533584184022     11.50976686765821
  H   14.59731149780496     11.69074803769862     11.83212835521510
  C   12.53599601998684     11.25637390646198     12.29813015698931
  H   12.74732984392937     10.78164346899112     13.25326495869006
  C   11.21320409111324     11.40254569129671     11.85407139560263
  N   9.57480862920739     12.05385371279758      7.99132612182109
  N   11.61122054386111     13.07809328666882      8.68189791940074
  H   12.42869144771725     13.54590198966442      8.29651319396202
  N   10.89158507058232     11.98945934723237     10.67522864994340
  N   10.18368429867170     10.91343281135260     12.67132071137779
  H   10.55792025092295     10.41502812055835     13.47614446432662
  C   9.92753092322733      9.17934411985834      9.37219880216615
  H   10.71620819295688      9.78379806688744      8.93060586104418
  C   9.96502977455593      7.78503693668512      9.32846877814877
  H   10.79819607337216      7.27986573404435      8.84602619371507
  C   9.35918990667521     15.03281003172947     11.02836391496562
  H   8.51828777712834     15.22914269314236     11.70340823671114
  H   10.15044454970052     14.50126316172906     11.55970391057189
  H   9.74762903079533     15.96971772807422     10.61545400819093
  H   8.23009926010021     14.56855705280751      9.43715264379990
