56
Coordinates from ORCA-job ELUXUG_2_4_tpss_d4_lanl2dz_631gpol_Co2.opt
  C   8.99834479351862     11.69610807363012     12.92066432894585
  C   8.62939909901183     11.75887634563094     14.26965333389755
  H   9.27344954810866     11.33548760518364     15.03634471879546
  C   7.45428088329984     12.43282517640442     14.60518817772034
  H   7.14928201316715     12.51901071682364     15.64531725924562
  C   6.67999431673991     13.00328608098386     13.59730795685222
  H   5.75224172343019     13.52094666174602     13.82838801718983
  C   7.09668256396443     12.85857410232075     12.26469716501409
  C   5.95526789755862     12.83241764049832     10.02762620756321
  C   4.62616408903204     12.93062627138628      9.58733810459778
  H   3.88074760619647     13.43047312721265     10.20097836249112
  C   4.27937903126760     12.33661097723621      8.37556662208027
  H   3.25420460046983     12.38495194209596      8.01632515994440
  C   5.25958691867205     11.68932603978243      7.62128365451007
  H   5.02634371355642     11.25034028843977      6.65449818264336
  C   6.57112837229488     11.67289499550144      8.10935490537397
  C   7.88529771538926      9.16277816051882     10.55585907971041
  H   7.08598878744485      9.76561890886065     10.98045626063843
  C   7.85329596099578      7.76939059453242     10.58913743098737
  H   7.01220411799538      7.25605816661588     11.04819243394681
  C   8.91932478931281      7.05714232242657     10.02281004579565
  H   8.92333876752440      5.96928731188128     10.03311393134616
  Co  8.88904992048365     11.91836961070370      9.94527224659891
  N   8.24189292789675     12.21544240695978     11.91664392448155
  N   6.28787975159176     13.39894363205161     11.26114453057607
  H   5.52145184059308     13.94704533911158     11.64600477004224
  N   6.92422111587507     12.21206676329392      9.30666460259104
  N   7.58162569299522     11.07231054899989      7.33571641925438
  H   7.18553254575142     10.57914157142711      6.53705613136911
  N   8.90947025387509      9.84932042788321      9.99732540104930
  C   8.78298357152869     11.71839154856956      6.98485710954508
  C   9.13862310786411     11.80581525479318      5.63489951341261
  H   8.48973633390405     11.39260840380709      4.86682210486464
  C   10.30928170625804     12.49031860825403      5.30067436774747
  H   10.60417076963818     12.59554487002568      4.25937147504500
  C   11.09123653833754     13.04610565352417      6.31019302735208
  H   12.01455111642048     13.57168888339495      6.07924049941050
  C   10.68742056328412     12.87678632550582      7.64448201400760
  C   11.83087020288866     12.81609050472281      9.88037670680677
  C   13.16364403401276     12.89549792211968     10.31166719848878
  H   13.91070796603264     13.38966456449363      9.69543033477122
  C   13.51240353778905     12.28986644732504     11.51756289298380
  H   14.54057213509390     12.32376093234474     11.86979400831570
  C   12.52993793486275     11.65049240417421     12.27387240299523
  H   12.76413857942066     11.20375807728216     13.23693185752215
  C   11.21376807192074     11.65318141138269     11.79499848172472
  N   9.54740100422258     12.22499227699760      7.98941909967067
  N   11.50102271452542     13.39839229562251      8.65248335249324
  H   12.27038264620204     13.94691920962961      8.27418558822045
  N   10.85757202443890     12.20188835990272     10.60288313160545
  N   10.20787992875825     11.06554519402991     12.57986206505402
  H   10.60588793136039     10.57889675442865     13.38132782384568
  C   9.93765546058397      9.15984182578709      9.44976097452342
  H   10.73270359922861      9.76027289280644      9.01379701049731
  C   9.97980962029254      7.76633680331996      9.44247073155523
  H   10.82416754311734      7.25067076561256      8.99210686228805
