57
Coordinates from ORCA-job ELUXUG-oxo_2_2_tpss_d4_lanl2dz_631gpol_Co2.opt
  C   8.97844721192727     11.49965063822690     12.79852451610009
  C   8.58556279024023     11.53412690704163     14.14046964391648
  H   9.16053401013787     10.99413417878401     14.88836112063080
  C   7.50223669287141     12.33755287244267     14.49839057763672
  H   7.19219069202091     12.40903792352884     15.53798472346777
  C   6.82883934654074     13.05650205715896     13.51309026790172
  H   5.97197751378434     13.67997865744757     13.75460554176537
  C   7.23922536778399     12.92004541020127     12.18004704606900
  C   6.12608084952757     12.91046038914412      9.99603315696126
  C   4.80290528615977     13.03054477785303      9.55064142746314
  H   4.09952573431034     13.64759149160360     10.10359125536571
  C   4.40393436666586     12.30220904258798      8.43183044264309
  H   3.37765454971931     12.35982379613523      8.07765326300140
  C   5.33592138233039     11.50751649030801      7.76350816167084
  H   5.07004812587316     10.96127247353106      6.86213823432175
  C   6.65536858525053     11.48946400280481      8.22787746680888
  C   7.86201330210457      9.39210500413427     10.49562595102517
  H   7.05365386627389      9.98782834070911     10.91094478662963
  C   7.82473578496117      7.99844173144770     10.51516926322093
  H   6.97117220499875      7.48858035196286     10.95494787806157
  C   8.89563354474275      7.28400266668568      9.96384159629117
  H   8.89563306062971      6.19626238846375      9.96384053738228
  Co  8.89563517553399     12.12875614101339      9.96384550448775
  N   8.29837380209595     12.14992879734322     11.81940097038005
  N   6.51516647997335     13.54824953638650     11.17086566455646
  H   5.82704852112408     14.21237976213001     11.51877030264434
  N   7.04543282285780     12.14705558009760      9.34991876631784
  N   7.64572442058403     10.81754125748307      7.49937953474004
  H   7.25667852099647     10.27500650544822      6.73030768240775
  N   8.89563467263510     10.08298714545996      9.96384418806763
  O   8.89563553482083     13.89041227635967      9.96384707371487
  C   8.81282325445198     11.49965515925733      7.12916635081768
  C   9.20570827646554     11.53413303607058      5.78722144461165
  H   8.63073708396266     10.99414164538850      5.03932896537622
  C   10.28903502183441     12.33755876591441      5.42930198036202
  H   10.59908145528411     12.40904485748571      4.38970805311452
  C   10.96243228414295     13.05650628319230      6.41460352532212
  H   11.81929459821883     13.67998270669624      6.17308954189209
  C   10.55204561193994     12.92004822632257      7.74764637999980
  C   11.66518982792473     12.91046015545549      9.93166038234646
  C   12.98836505061721     13.03054461349325     10.37705306799814
  H   13.69174470793494     13.64759256408330      9.82410474780195
  C   13.38733556207955     12.30220737459519     11.49586321587464
  H   14.41361511035124     12.35982215557397     11.85004119825005
  C   12.45534853821771     11.50751329833014     12.16418368089804
  H   12.72122161285569     10.96126814175192     13.06555298142092
  C   11.13590166054968     11.48946081210636     11.69981350414770
  N   9.49289667565040     12.14993160487221      8.10829114889848
  N   11.27610444879388     13.54825082763502      8.75682868263156
  H   11.96422214723736     14.21238187371840      8.40892511926309
  N   10.74583788404746     12.14705387441767     10.57777300946624
  N   10.14554558398396     10.81753657511722     12.42830981136784
  H   10.53459143317832     10.27500061092112     13.19738083948154
  C   9.92925552374388      9.39210515702515      9.43206124006205
  H   10.73761545978906      9.98782861036672      9.01674352237933
  C   9.96653190183011      7.99844187429465      9.41251530584642
  H   10.82009506543772      7.48858060198917      8.97273575471738
