56
Coordinates from ORCA-job ELUXUG_2_2_tpss_d4_lanl2dz_631gpol_Co2.opt
  C   8.96831429131430     11.57255720243992     12.80617281072691
  C   8.54440004962443     11.57070336469358     14.14067613802320
  H   9.11101458115599     11.02368150277038     14.88993155109574
  C   7.43371645092221     12.33724958243282     14.49026579211097
  H   7.09594617371929     12.37590085692957     15.52290606182320
  C   6.76585998405942     13.06177966359126     13.50237187774479
  H   5.88972266495407     13.66080959824380     13.73674198330406
  C   7.21453994545486     12.96531433525197     12.18074134642421
  C   6.10619581091278     12.93702136462176     10.00656735802184
  C   4.76670165211625     12.98976778777584      9.60777544513821
  H   4.05102351105177     13.57313589389360     10.18119590512705
  C   4.36894320676908     12.24122046107851      8.49894079376871
  H   3.33002970977787     12.24404623998579      8.17864841704074
  C   5.31930251787176     11.49819563437226      7.80099064053109
  H   5.05248001707115     10.93528166568797      6.91012902794181
  C   6.65284137310386     11.54378738447412      8.22708117601424
  C   7.86818718090792      9.32167857522431     10.50316880159161
  H   7.06321537172473      9.92000743396289     10.92539555065929
  C   7.82852384399432      7.92683476788093     10.52428787609511
  H   6.97935678018110      7.41499077836970     10.97064447544603
  C   8.89563323161112      7.21314722058523      9.96384790016654
  H   8.89563256863240      6.12534301494285      9.96384866474768
  Co  8.89563813666017     12.12524863105196      9.96384692758895
  N   8.30235505978757     12.23259753941026     11.82048883103347
  N   6.52146885723276     13.62431686838863     11.15635724573957
  H   5.80085154452074     14.24812378207416     11.51552170511022
  N   7.05003626257173     12.22233050387625      9.33690910100270
  N   7.64279768705429     10.90857460237491      7.47204203754586
  H   7.25906967841629     10.36103506909010      6.70437903289504
  N   8.89563515184953     10.01330392128253      9.96384607040337
  C   8.82295754477960     11.57256428697491      7.12151800318322
  C   9.24686486493132     11.57071959934103      5.78701264911227
  H   8.68024693309587     11.02370236467548      5.03775649725759
  C   10.35754591773344     12.33726961179546      5.43742248652829
  H   10.69531061881018     12.37592885159831      4.40478070666216
  C   11.02540716095465     13.06179272103208      6.42531796575628
  H   11.90154311379228     13.66082455711284      6.19094743991083
  C   10.57673438260798     12.96531772290572      7.74695046346658
  C   11.68508119596387     12.93701725277574      9.92112576289051
  C   13.02457478383424     12.98976431531738     10.31992030216362
  H   13.74025370010487     13.57313177845639      9.74650011508256
  C   13.42233143996275     12.24121858311059     11.42875645346662
  H   14.46124429814480     12.24404497459216     11.74905087948002
  C   12.47197090520121     11.49819419823911     12.12670545909913
  H   12.73879174753047     10.93528113710336     13.01756815271536
  C   11.13843287734583     11.54378516974852     11.70061245813191
  N   9.48892060350789     12.23259904368622      8.10720311980978
  N   11.26981265103545     13.62431167096829      8.77133416927970
  H   11.99043216431169     14.24811649482603      8.41217065936420
  N   10.74123934833693     12.22232741541117     10.59078332815836
  N   10.14847641533133     10.90857172067359     12.45565067738721
  H   10.53220389847176     10.36103158769814     13.22331349622249
  C   9.92308221445493      9.32167646860755      9.42452422936151
  H   10.72805448032866      9.92000376615880      9.00229617973551
  C   9.96274362340728      7.92683260261789      9.40340700664078
  H   10.81190982099650      7.41498685781483      8.95705079427085
