58
Coordinates from ORCA-job ELUXUG-OH_2_3_tpss_d4_lanl2dz_631gpol_Co2.opt
  C   9.00230306987017     11.63377944481115     12.94990545959939
  C   8.61430481345733     11.66390423661370     14.29492016086521
  H   9.24985524663941     11.22972664466510     15.06277097733313
  C   7.42453696027385     12.31734361345972     14.62524413526007
  H   7.10200856659415     12.37423394340143     15.66206755988292
  C   6.65472765131969     12.89853391867938     13.61988348006575
  H   5.71244976548163     13.39083063788276     13.84774910136381
  C   7.09462994333598     12.78981314822635     12.28989105108424
  C   5.99259533258002     12.77909408302750     10.02947771391946
  C   4.66908759100698     12.89472537633442      9.57483453469231
  H   3.92636312464534     13.40657478736991     10.18203790229774
  C   4.32135059687797     12.29695118038928      8.36619103696761
  H   3.30066071945676     12.36013857340347      7.99699217242532
  C   5.29640970427460     11.62176833448878      7.63136157148389
  H   5.06526730956090     11.17652338902891      6.66684254797242
  C   6.60532217825125     11.58585100496803      8.12823400224302
  C   7.87956157116708      9.48133119503662     10.52776493621759
  H   7.07086210509904     10.07527030925335     10.93962662269572
  C   7.85458849588052      8.08804519067981     10.56186571483562
  H   7.00535285543111      7.57963659493836     11.01120618948734
  C   8.92667069800035      7.37406366960615     10.01361558900220
  H   8.93334294503630      6.28645967647614     10.02599700004349
  Co  8.90212977670563     12.17382890477833      9.96698096229641
  N   8.25548304139810     12.17158464364653     11.95620097859233
  N   6.30248036665138     13.33032508319555     11.27683456236822
  H   5.53260967706375     13.88351186281322     11.64701806279971
  N   6.95415162766544     12.13617362106326      9.31862896390879
  N   7.60422831238044     10.95498615440943      7.36406004956292
  H   7.19528277815603     10.45714564699498      6.57471695455292
  N   8.90963466857664     10.16947725146471      9.98241638551708
  O   8.84581622564973     13.93486484170510      9.88746744121905
  C   8.79942438668362     11.59850600605170      6.99051491863593
  C   9.15280053504272     11.67044777824215      5.63756299950620
  H   8.51024701763463     11.23619914888305      4.87563055775603
  C   10.31058727313389     12.37150839694884      5.29343219199078
  H   10.60408939804246     12.46515739455788      4.25069715521505
  C   11.08288750644846     12.95922589176892      6.29392428270293
  H   11.99821802718026     13.49520622556549      6.05471443848015
  C   10.67844315867691     12.80219146152791      7.62881699158300
  C   11.82051640812841     12.75873572055251      9.86418677512043
  C   13.16384596500870     12.79810052579389     10.27009891985501
  H   13.91211149514039     13.25915553120410      9.63014080444559
  C   13.52008187974325     12.18918930489296     11.47143269017729
  H   14.55583792535468     12.19356650802368     11.80216577181377
  C   12.53649098171659     11.57486387903023     12.24634272866375
  H   12.77902072982599     11.11921942121491     13.20323840699482
  C   11.20894986498853     11.60670574219037     11.79815756749939
  N   9.55687557579729     12.13081419064430      7.97613407628016
  N   11.48388856325967     13.34077575163122      8.63964122496584
  H   12.25110511574687     13.89102704330333      8.25909346305736
  N   10.84565072382906     12.17777706530366     10.61852721286495
  N   10.21729799232367     11.02194115298380     12.59879514376794
  H   10.62722238639355     10.53016754884141     13.39087477643235
  C   9.94698797296787      9.48178210777649      9.45021047398597
  H   10.74592990476802     10.07631344837307      9.02045493779743
  C   9.98955498309601      8.08856881202890      9.44828657084491
  H   10.84402301577716      7.58066987910768      9.00837909678717
  H   9.35070349480311     14.30229710074541     10.64878200221954
