40
Coordinates from ORCA-job DOMLUN_1_4_tpss_d4_lanl2dz_631gpol_Fe3.opt
  Fe  4.91360097932947      3.57039290468607      2.31863484193343
  Cl  6.60744757564610      2.32525853078640      2.90739750510672
  Cl  5.89203337509384      5.52117423499257      2.67460792808482
  N   3.82174273140999      2.02751206204034      1.65721991570899
  N   3.40438345502815      4.63315613607750      1.42339026560319
  N   3.65629150027478      3.71384517022753      4.08011781248190
  C   3.98102176069144      0.73678906426776      2.04264622634162
  H   4.82442587116000      0.53881431196210      2.69698667215709
  C   3.12521663956756     -0.27425277910341      1.60773654028125
  H   3.29773890004526     -1.29445853869560      1.93961339431948
  C   2.06676122681596      0.04795693052579      0.75165265873606
  H   1.38239069407277     -0.72016766191092      0.39906654009560
  C   1.90408736257913      1.37896959556828      0.35063334016466
  H   1.09902098342970      1.66965680710102     -0.32002554369657
  C   2.79942135989177      2.34438318356885      0.81136260382171
  C   2.76078033083078      3.78452156140848      0.37751691033487
  H   3.34801985620936      3.90188044339079     -0.54372561663271
  H   1.73736531882425      4.12544203589778      0.17276198974840
  C   2.48523428686658      5.15035828739225      2.49858812181299
  H   1.52121037802796      5.43190577992751      2.05487442887055
  H   2.96502621153705      6.04948116336449      2.90149982771306
  C   2.30811838288252      4.10687636619364      3.60196980402788
  H   1.68707523816163      4.51319329112099      4.41123262791774
  H   1.81450828058685      3.20383278234054      3.22055699269109
  C   3.65478226315075      2.54710924550042      5.03381531261467
  H   4.70810052276161      2.32473868048692      5.23744370162587
  H   3.21562759745190      1.69800359047895      4.49605702225426
  C   2.88343201460446      2.85602602932880      6.29501999974960
  C   1.55844351817078      2.41385762120934      6.45466054187635
  H   1.09937355853550      1.79139176535127      5.68526054357257
  C   0.83446762127974      2.74692766764753      7.60590010296492
  H   -0.18653960859122      2.38980761710646      7.72796049118436
  C   1.42983668621952      3.53108605360182      8.60352965419300
  H   0.86959172974173      3.78722927939886      9.50052336134035
  C   2.75137880920916      3.97612969119691      8.45220072193291
  H   3.21959639834784      4.57266378384117      9.23257889619168
  C   3.47540890029607      3.63999047413416      7.30335718571633
  H   4.50996693241606      3.97028095473369      7.19720766295072
  H   3.85126618716829      5.44103831837903      0.97523090402051
  H   4.07954417027478      4.51239756447377      4.57133811018791
