41
Coordinates from ORCA-job DOMLUN-oxo_1_2_tpss_d4_lanl2dz_631gpol_Fe3.opt
  Fe  4.87665404415988      3.63475026370352      2.34176508875812
  Cl  6.26211979484715      2.52584356005080      3.66935259149613
  Cl  5.54701289826535      5.60212573855105      3.23141539566919
  O   5.66424066843099      3.72675469628320      0.94349304841295
  N   3.89456868303789      2.02604279145756      1.68826067264613
  N   3.37354047562169      4.65388534910146      1.46311229069643
  N   3.43050238306239      3.57824078013989      3.96351918768004
  C   4.13209752605020      0.74304768913736      2.03418380261021
  H   4.96603992964253      0.58298455914623      2.71170063970958
  C   3.34981115554444     -0.30004720976310      1.53589636569328
  H   3.57202080867542     -1.32158833780576      1.83229209849365
  C   2.29725292998676     -0.00479471801900      0.66286949262396
  H   1.66755725407260     -0.79735834847773      0.26498734216548
  C   2.06952869347671      1.32696743565620      0.29607374473629
  H   1.27226197378570      1.59192245103434     -0.39455782875821
  C   2.89677715689250      2.32396785805795      0.81595154930380
  C   2.81767996712728      3.77090685664354      0.39198117403376
  H   3.44936029865293      3.91176242614971     -0.49458836661247
  H   1.79150084559070      4.06729529438665      0.14051643148799
  C   2.38523228302165      5.17318955172220      2.45681981592887
  H   1.46563463820244      5.48214369607743      1.94229686570544
  H   2.84916402145577      6.04600375322588      2.92728067649239
  C   2.11591465587859      4.08199311959543      3.47992708309110
  H   1.50522280301114      4.46186291228935      4.30893269189740
  H   1.58664832687296      3.23310322223899      3.02828313227668
  C   3.26590084952350      2.36354073550905      4.84974416081008
  H   4.25749356161948      1.90784916037048      4.94021196519103
  H   2.59523924760292      1.66903252858294      4.33190095337006
  C   2.72852005298058      2.78576702667184      6.19144501856583
  C   1.38246924395425      2.57733007692800      6.54861374237309
  H   0.71508017743753      2.05495289383494      5.86321515958411
  C   0.90904859088422      3.01858587049848      7.78696789605221
  H   -0.12832053638798      2.84726946451692      8.06669384737193
  C   1.77617690566241      3.68145736614920      8.67598170489893
  H   1.40424541714922      4.02407866894155      9.63939752149431
  C   3.12008301100908      3.89524117214743      8.32711442970916
  H   3.79191603372853      4.39589134151930      9.02073969519080
  C   3.59479434190354      3.45116347978675      7.09226403454753
  H   4.64192426265036      3.59699391388152      6.82399215175545
  H   3.86745411983160      5.44768674873004      1.03876605312656
  H   3.87723050508498      4.31635416134826      4.52958667972053
