42
Coordinates from ORCA-job CUXREV_2_3_tpss_d4_lanl2dz_631gpol_Fe2.opt
  Fe  4.33209661250263     10.16526133975296     26.86544725554200
  S   3.88790241399781     12.42642727750729     27.14580639785719
  S   3.07823804008222      9.73397236755938     28.96196034304252
  S   2.52567001570632      9.24732038327559     25.70677193677858
  N   6.02381718897590     10.59541077700801     27.68120182385039
  N   5.15903679227038      8.46550334375379     26.47151490520477
  C   6.40618306964316     11.76377823184232     28.22419970321974
  C   7.65095891868978     11.86043571088654     28.89270463776455
  H   7.95208809473330     12.81152174164864     29.32486840815538
  C   8.48684982760538     10.75123512065099     28.98436218225134
  H   9.44234652195948     10.83447615981797     29.49852678988508
  C   8.10187506337074      9.51548948917766     28.39375051312266
  C   8.87219232397413      8.29873261986641     28.37711881098752
  H   9.83809332014521      8.28399014439521     28.87709839681082
  C   8.41530575840295      7.16979619315378     27.73219014215210
  H   9.02204962139377      6.26708061869303     27.72375068375099
  C   7.14780389796682      7.15921432879685     27.04853180540305
  C   6.59241153195552      6.07594955440371     26.31214036050021
  H   7.12970081960958      5.13201836533649     26.24425156337399
  C   5.37066819735301      6.22617274490936     25.65998300689701
  H   4.95834795124292      5.40949965856858     25.07277788217705
  C   4.66454600182735      7.44958396240262     25.74164150676164
  C   6.37512928449990      8.33851586060419     27.08732402344203
  C   6.84772590333736      9.50300649328682     27.75011920970875
  C   5.46359306197014     12.92573828708242     28.02844402097405
  H   5.92911317876085     13.69578119821058     27.39808501466321
  H   5.19414964958825     13.40680589336737     28.97727650646566
  C   2.65065175773777     12.49626854990746     28.51660287791487
  H   2.66901267855523     13.51148667977613     28.93413751581197
  H   1.68591279804665     12.37647453055553     28.00821335609174
  C   2.86190866880446     11.44620335939904     29.60798305051240
  H   2.02204777260465     11.45242766172536     30.31453062821569
  H   3.77394667431191     11.63629898755804     30.18771296875223
  C   1.40453375388532      9.35087551975206     28.26619423341084
  H   0.80661984945796      8.85983147605874     29.04261967359151
  H   0.90600125853877     10.28089836510800     27.96982897549874
  C   1.58139282049110      8.40672887156429     27.07912447487157
  H   0.60646124183631      8.11169554521562     26.67362670974978
  H   2.14033164139916      7.50819965347983     27.36844859048347
  C   3.39425206524008      7.75956594599043     24.99097445216762
  H   2.68926403908420      6.92042161737673     24.95828458021357
  H   3.62536991844131      8.03110537057371     23.95077008197034
