44
Coordinates from ORCA-job CUXREV-OH_2_4_tpss_d4_lanl2dz_631gpol_Fe2.opt
  Fe  4.23079536888713     10.37583817305528     26.44371693027962
  S   3.76621622423614     12.66859172882931     27.21497100979009
  S   3.34143156822221      9.65227942651988     28.55621810724290
  S   2.33527843992980      9.06651393996637     25.47670532432545
  N   5.94638507926204     10.67795194831888     27.61740826834346
  N   5.09731586042867      8.47614879266543     26.41137292142011
  O   4.77859136986983     10.90111400310036     24.87174505904777
  C   6.33161905451471     11.84114180258180     28.14776200642140
  C   7.53356947222972     11.93386205933628     28.89004342638777
  H   7.83515431330653     12.88840740154842     29.31511392268096
  C   8.32900954787472     10.80412303249292     29.05337020754519
  H   9.25614939289054     10.86989388115084     29.61976116073214
  C   7.94248251815392      9.56701026631427     28.47157859733683
  C   8.68964488767508      8.34041277178635     28.54790082436800
  H   9.62449427127772      8.33001505799455     29.10414679475088
  C   8.24660473751231      7.19707697119868     27.92330773446647
  H   8.83045680005242      6.28126516925330     27.98581563279964
  C   7.02140346759536      7.18670858651422     27.17005685395987
  C   6.49643724763443      6.06979945223033     26.46658285220563
  H   7.02864145157405      5.12052926626819     26.48220942268199
  C   5.31097574825383      6.19025121564628     25.74863345959430
  H   4.91378128223838      5.34559380347426     25.19062441995665
  C   4.62742287341248      7.42978886513397     25.72858053973736
  C   6.26322095677961      8.38096748684137     27.10238822987236
  C   6.72228061270773      9.56811428742628     27.75333244196064
  C   5.46580865182887     13.05204477588993     27.84810927533853
  H   5.92612482483059     13.64133923340815     27.04208995654136
  H   5.36602613073036     13.71624726341340     28.71558579459192
  C   2.81186246639512     12.42034680850205     28.77473457345959
  H   2.90493167138889     13.33061931720094     29.38186912909067
  H   1.76645656390246     12.35585435945989     28.44920668616466
  C   3.24705120819694     11.19349785755658     29.57079955700381
  H   2.57019455444741     10.99699598124183     30.41323839198402
  H   4.25814739613154     11.30860966061225     29.97879988468173
  C   1.56815678437288      9.31113333196996     28.14149127277521
  H   1.08931221439706      8.88177183078407     29.03069619031145
  H   1.06272239751082     10.24486353858216     27.86999940639707
  C   1.55774588050850      8.30904875628133     26.98791620044185
  H   0.52623627695165      8.03948371702168     26.73279008019751
  H   2.11136255979218      7.39774016231234     27.24418422342004
  C   3.39042251854319      7.66896816712530     24.88393031397575
  H   2.76486899141002      6.77279286854929     24.79579787284320
  H   3.68535441060843      7.96585500446176     23.86706402669785
  H   4.16155195153347     11.48389797597887     24.37001101617514
