43
Coordinates from ORCA-job CUXREV-oxo_2_3_tpss_d4_lanl2dz_631gpol_Fe2.opt
  Fe  4.32326213990686     10.27762650354798     26.60800437073748
  S   3.71758870906688     12.47243335308453     27.13940995567454
  S   3.37023613522890      9.59359478886609     28.74935693859695
  S   2.45770635158025      9.29403835045399     25.59178284749791
  N   5.91543686181123     10.64993501098913     27.62258119661933
  N   5.07850011337322      8.51786853326465     26.45431278803414
  O   4.85883119619858     10.80363537806166     25.14341485069618
  C   6.29438814413280     11.84358142911375     28.10202093572584
  C   7.49428349639967     11.94441377186167     28.84814104916455
  H   7.79680721313478     12.91149554348987     29.24204601259830
  C   8.29243447072624     10.82027926120352     29.05711248527403
  H   9.21539289873165     10.91302283738317     29.62600655207366
  C   7.91525235375440      9.56316044248523     28.51016858246019
  C   8.65047923314799      8.32542657651075     28.58219802227466
  H   9.58492587843800      8.30363457417451     29.13839057639271
  C   8.20626371649965      7.18531594281020     27.94549347269183
  H   8.79379675135581      6.27177776311311     28.00262563215594
  C   6.98416727488232      7.17749533914341     27.18140693077019
  C   6.45035063500984      6.10103409990188     26.42118548357343
  H   6.96247451525836      5.14119416209849     26.40041844453696
  C   5.28370377865555      6.27774852654351     25.67714649654407
  H   4.89451090333070      5.46583284724286     25.06803008279171
  C   4.60818583858699      7.52225895493255     25.68911367023227
  C   6.23904931003564      8.37441669537169     27.15106721974362
  C   6.69860166769521      9.54703700864350     27.79795150716619
  C   5.41296404279735     13.00472717540409     27.71378429688222
  H   5.84338027534477     13.51839986546089     26.84166145953536
  H   5.29931994298842     13.74912497563295     28.51085383833521
  C   2.80706790586393     12.35866075744167     28.74105229483266
  H   2.91538813629146     13.32145588019594     29.25821997607251
  H   1.75315600033883     12.27421188984463     28.44917616912822
  C   3.24981628024947     11.20549321368219     29.64000178640406
  H   2.56640527942137     11.08012118339330     30.48968013319475
  H   4.25548538859291     11.36609742349824     30.04676571199022
  C   1.61884803601342      9.25506423220117     28.24897168692662
  H   1.11940388061864      8.72814187238174     29.07049497785224
  H   1.09524903204672     10.19831226615025     28.05668254299938
  C   1.66268193928745      8.37374355853335     27.00209238341711
  H   0.64692240871142      8.10410009524983     26.68902437733254
  H   2.23563828175642      7.45621416909036     27.18523751340111
  C   3.41711540464253      7.88552894648905     24.83742185821524
  H   2.73408306487502      7.04818936627292     24.65472713603105
  H   3.75474511321811      8.26995543478543     23.86406575342181
