46
Coordinates from ORCA-job ALEFOP-CH3OH_0_4_tpss_d4_lanl2dz_631gpol_Co2.opt
  Co  3.83368232392194      4.42914849406598      5.54333426991059
  S   4.40711278778984      4.01951732892099      7.98626988697916
  O   1.98888262433878      4.11453676883506      6.14242188652431
  N   3.92272320873488      2.27408180802472      5.49156366095425
  O   3.93873282988505      6.56588949636631      5.75257042454531
  C   5.31751204245220      2.47034411790631      7.46848346667614
  H   6.22153200075917      2.86293822703872      6.98224007576705
  H   5.59432714795672      1.89815061108431      8.36032669858568
  C   4.53652266035675      1.62238572636160      6.49806141728830
  C   4.46799556112916      0.22780850263207      6.60194067767488
  H   4.95739981214069     -0.28294801779000      7.42823549386267
  C   3.77476719689241     -0.48596921701568      5.61882354102373
  H   3.71586116250891     -1.57184155668989      5.66915498751856
  C   2.75289679423935      3.44452088277086      8.34065422670776
  C   1.74372908689757      3.61914941263548      7.33412045195532
  C   0.42554933324586      3.20649079134307      7.68347900426364
  H   -0.35368725315377      3.33446550108143      6.93356448643376
  C   0.13991683162429      2.66258026004599      8.93178719870812
  H   -0.88229229371389      2.35777753953389      9.15800643352689
  C   1.14441622675253      2.50557815708684      9.90724200028231
  H   0.91062210236347      2.08390042959319     10.88297535950137
  C   2.44477664429293      2.91060224655048      9.60490352195346
  H   3.23889199803623      2.81790664152007     10.34571179553821
  S   3.39597952307132      4.02549788582534      3.11175207174176
  O   5.74496764697854      4.40501497090287      5.00840494194174
  C   2.50933363775302      2.43829590302333      3.52676643270559
  H   1.55428949491414      2.78550664585317      3.94664377696750
  H   2.32131435655229      1.86842414778920      2.61003188519869
  C   3.23150589404806      1.60323434174162      4.55377025921012
  C   3.15383282178607      0.20495645384027      4.57350295302961
  H   2.60466642037111     -0.32387025075738      3.79747455537485
  C   5.08564828687055      3.48107683425159      2.86592594982878
  C   6.04770421815788      3.77424943963953      3.88832830406849
  C   7.38266956330793      3.34773175399385      3.64373056258104
  H   8.12565933931566      3.56064395723269      4.41130533237733
  C   7.73103148292487      2.67858621310276      2.47304017507816
  H   8.76493378077561      2.36566926337088      2.32537998699714
  C   6.77251502674901      2.40780569089336      1.47853084682075
  H   7.05340957565107      1.89294950129080      0.56170277660131
  C   5.45521168784282      2.82453163368393      1.67981687361196
  H   4.69780474401129      2.64340818425646      0.91712720068195
  C   4.60846342611329      7.23788896899292      4.65126950466595
  H   4.72567725763292      8.30331052509460      4.88657228498964
  H   5.57388737711821      6.76080946805618      4.44865755045554
  H   3.94530102649121      7.11969687216272      3.79099033633990
  H   4.50132258211175      6.65165744385728      6.54955447255035
