40
Coordinates from ORCA-job ALEFOP_0_2_tpss_d4_lanl2dz_631gpol_Co2.opt
  Co  3.90230863281223      4.24360873324571      5.60619429449692
  S   4.44212619519778      4.09723211345202      7.83685676673123
  O   2.07909911140864      4.30651179447445      6.07953164939071
  N   3.90302002650978      2.23253034763824      5.60547895227342
  C   5.26225746869552      2.43616225437684      7.59337900762604
  H   6.25317821424065      2.71222130922277      7.20610786522917
  H   5.37682073651506      1.93554142048178      8.56151912673996
  C   4.53992800840772      1.57089251508057      6.59253237300799
  C   4.54358259443197      0.17291809168664      6.63231507191463
  H   5.05192167820861     -0.35035629577140      7.43960828880616
  C   3.90151692036973     -0.53078444243328      5.60635029568692
  H   3.90083114872376     -1.61938091142182      5.60675385958999
  C   2.76969600069833      3.67223894961037      8.30070769306923
  C   1.77856686772374      3.87138557022888      7.29524959308939
  C   0.43007797815669      3.60619243818493      7.65378591715783
  H   -0.33932128392958      3.75236928845787      6.89725655497186
  C   0.10864672266654      3.17659974078358      8.93858805992831
  H   -0.93447553478064      2.97777598502384      9.18540491934342
  C   1.10034562998254      2.99932445142045      9.92454443075055
  H   0.83173026270474      2.66790692571439     10.92581566041019
  C   2.43172343059163      3.26451343296873      9.60167975146146
  H   3.21701605685910      3.15396028705382     10.34991697808896
  S   3.36523490753405      4.09726005226551      3.37449502782547
  O   5.72611904298358      4.30796028828386      5.13372384596981
  C   2.54453937067230      2.43635421272340      3.61700709376132
  H   1.55301198926025      2.71229180306487      4.00279457777097
  H   2.43129161092022      1.93563544374417      2.64874296214441
  C   3.26561050477523      1.57099657791396      4.61875408024482
  C   3.26036723770234      0.17297079902601      4.57988189753978
  H   2.75151836539016     -0.35024379915881      3.77286867501346
  C   5.03805408600013      3.67211492028543      2.91241037458059
  C   6.02812342276009      3.87224780052765      3.91863805013843
  C   7.37706631700094      3.60746556625027      3.56149807425552
  H   8.14573380846495      3.75449350157902      4.31860789831535
  C   7.69981848485390      3.17715777605097      2.27726165440089
  H   8.74324475449272      2.97862124209862      2.03150121357286
  C   6.70908091484718      2.99882107075012      1.29052792420404
  H   6.97873262998411      2.66677787453569      0.28974296673131
  C   5.37730743891540      3.26374715555508      1.61198260717696
  H   4.59274824724779      3.15246371502471      0.86308396658949
