41
Coordinates from ORCA-job ALEFOP-oxo_0_4_tpss_d4_lanl2dz_631gpol_Co2.opt
  Co  3.90345784939076      4.53286589954404      5.60658130739914
  S   4.44517739625429      4.18814677389270      8.02112462603163
  O   2.05630573778467      4.27767936653219      6.10547029111472
  N   3.90345566424348      2.46160116118749      5.60657794343734
  O   3.90345962226425      6.16485825195971      5.60658381029971
  C   5.31549578224971      2.60643469175900      7.59165645709826
  H   6.27123858948616      2.94152916889914      7.16507090492951
  H   5.50218418355630      2.02503650744717      8.50110409567705
  C   4.56082500652979      1.79005539025119      6.57823110892710
  C   4.56376361891328      0.39119798349922      6.61378383405458
  H   5.08825272560074     -0.12455966239759      7.41437235878104
  C   3.90345378013879     -0.31626716599170      5.60657220735397
  H   3.90345296199736     -1.40447413697581      5.60657031124556
  C   2.77748889057921      3.63632480987189      8.33983935008455
  C   1.79702787128405      3.80243596721987      7.31185807236855
  C   0.46288517817906      3.42200823540143      7.62586155422757
  H   -0.29189459011072      3.54894333720872      6.85214162314961
  C   0.13477040585744      2.91297794389787      8.87814726735235
  H   -0.89820255896831      2.63150707612304      9.08165786182390
  C   1.10931829871524      2.76559118584208      9.88416320914460
  H   0.84148714368152      2.37564121996693     10.86389951455724
  C   2.42275464267765      3.14377311306392      9.60955356387558
  H   3.19269314970714      3.06227418698767     10.37620586389365
  S   3.36173781510585      4.18815648458874      3.19203645970583
  O   5.75060993178521      4.27767702549764      5.10769184742299
  C   2.49141596183676      2.60644461904294      3.62150005369738
  H   1.53567397496392      2.94154011596621      4.04808666633523
  H   2.30472506974002      2.02505077438672      2.71205024289394
  C   3.24608527947729      1.79006007895710      4.63492181892696
  C   3.24314489813533      0.39120300447553      4.59936331810476
  H   2.71865523469464     -0.12455044966774      3.79877247361626
  C   5.02942505704740      3.63633250155438      2.87332027928221
  C   6.00988659893941      3.80243773475748      3.90130211477892
  C   7.34402858691399      3.42200871607649      3.58729738517768
  H   8.09880886416411      3.54893962524418      4.36101741124575
  C   7.67214191425671      2.91298177377596      2.33500995853593
  H   8.70511399117781      2.63150903570706      2.13149724232430
  C   6.69759375800419      2.76560027730082      1.32899349798967
  H   6.96542413725929      2.37565293362930      0.34925586656162
  C   5.38415824049358      3.14378420907035      1.60360436817092
  H   4.61421933599250      3.06229023444660      0.83695185840222
