46
Coordinates from ORCA-job ALEFOP-CH3OH_0_2_tpss_d4_lanl2dz_631gpol_Co2.opt
  Co  3.90001870520410      4.24775800691460      5.36842769117498
  S   4.50416234809961      4.18077634446325      7.82825473400760
  O   2.09688065317279      4.34779962336881      5.98737795810916
  N   3.92791393033836      2.32378048663981      5.51452262740398
  O   3.71468761685200      6.24859235534779      5.19449971617236
  C   5.44164895830746      2.62698874410359      7.39485428493244
  H   6.32383410989098      3.01873053702097      6.86970157705073
  H   5.75113849864624      2.10060834996836      8.30419925631255
  C   4.66051084655702      1.72425378458084      6.48631782527003
  C   4.68644824821422      0.33305812377782      6.61977441102661
  H   5.27501701165291     -0.11711930875188      7.41592618057552
  C   3.96879905430427     -0.45413133615134      5.71512156454217
  H   3.98365857463165     -1.53943199055907      5.79401244391132
  C   2.84630309984639      3.61247745335570      8.17969229464280
  C   1.84307926568605      3.82243466536741      7.18227080729057
  C   0.51231162501737      3.45634408578449      7.51559599946534
  H   -0.25952475386778      3.61640540590284      6.76419416953833
  C   0.20656730727025      2.90321899055939      8.75659972193402
  H   -0.82469944090763      2.62611870280213      8.97576647982187
  C   1.20523435680947      2.69695242969946      9.72727807617845
  H   0.95717444049412      2.26549778944956     10.69514895902961
  C   2.51827054377901      3.06759695582053      9.43399686847957
  H   3.30713287736754      2.94242663608586     10.17530205237569
  S   3.29235103958846      3.84908465654920      3.00483895817348
  O   5.70631601055063      4.24081615184179      4.79942912960137
  C   2.42530653795904      2.31001096045902      3.59837634291535
  H   1.50054114375863      2.70690475391980      4.04071982773791
  H   2.17546624373066      1.65441624148925      2.75674502060615
  C   3.22011522622047      1.57045118179072      4.63599073356240
  C   3.23366690097631      0.17423852988510      4.70619248960010
  H   2.66314330750269     -0.40261851283017      3.98180603747042
  C   4.96354664037434      3.29717133842874      2.68935239208857
  C   5.96662187385801      3.62276679513481      3.65649586764359
  C   7.30600703816571      3.26188006202689      3.34469319269202
  H   8.07874232755739      3.50853179405450      4.07155113203348
  C   7.61805812665082      2.60923798845888      2.15559149705250
  H   8.65526304583666      2.34106230092636      1.95317191839069
  C   6.61963479041213      2.29220257721921      1.21392509779798
  H   6.87366273513950      1.78467524740000      0.28523518268311
  C   5.29949272397543      2.65337551721547      1.48484658134788
  H   4.50973460400839      2.44298243726269      0.76376553106775
  C   4.73353987177397      7.07493159742828      5.80841309974593
  H   4.52553789923335      8.12859565876953      5.58416702882116
  H   4.77894235802433      6.90884060538239      6.89210531152922
  H   5.67168011023794      6.75898015950914      5.34799462519195
  H   2.86506156709837      6.30441512212724      5.69190730300086
