42
Coordinates from ORCA-job ALEFOP-OH_0_1_tpss_d4_lanl2dz_631gpol_Co2.opt
  Co  3.89470178675573      4.21642595357186      5.62500360911836
  S   4.41801483665914      4.08660857666241      7.80851029964535
  O   2.04052934533620      4.12794261713156      6.04623226444331
  N   3.90046062466984      2.24877700682497      5.61011497719272
  O   3.86251109727930      6.05463771710188      5.63294361781442
  C   5.21559311925318      2.41395206631826      7.64047946613176
  H   6.23800009235046      2.64806226313852      7.31185216433838
  H   5.25427943596186      1.91615332671237      8.61605284444595
  C   4.52098361453221      1.57231467565166      6.60435369905679
  C   4.53376662217547      0.17429436532067      6.62312543328000
  H   5.02516487427447     -0.35115301024464      7.43858440605896
  C   3.92110089712904     -0.52380888892916      5.57780257693111
  H   3.92981925660398     -1.61192151880215      5.56479405839950
  C   2.75411250630629      3.67976470327167      8.30343899860197
  C   1.75759215224337      3.79372390962811      7.29109218343499
  C   0.41354776789834      3.53921135503511      7.68125920524945
  H   -0.36277884927196      3.62484262854364      6.92313275620723
  C   0.10733208585892      3.20211850981627      8.99561799808153
  H   -0.93197539273571      3.01353417988346      9.26446568547916
  C   1.10683414059987      3.11017468848488      9.98669344210639
  H   0.84801946286792      2.85520475484181     11.01223964229514
  C   2.43115125127453      3.36753952125771      9.63539546032429
  H   3.22259542802384      3.32614981620819     10.38405525206566
  S   3.36863820609661      4.11865614157723      3.44194531629017
  O   5.74996006189628      4.19565512099423      5.20235040165792
  C   2.57750844584625      2.44148927997938      3.58780170206200
  H   1.56104984480384      2.67157216437238      3.93669934580405
  H   2.52610937758233      1.95953668818557      2.60496898354161
  C   3.28689659794212      1.58609216467236      4.60166953026008
  C   3.29621388043716      0.18920356144614      4.54963837282083
  H   2.81107048205382     -0.32454038108919      3.72304369485130
  C   5.03665414443382      3.70543175052161      2.95047476964072
  C   6.03557590828221      3.83626115496660      3.95732038834669
  C   7.37888101888630      3.57954178608807      3.57529163438150
  H   8.15400515472890      3.67415062070256      4.33377455183843
  C   7.68820421062878      3.22354620428321      2.26536220347512
  H   8.72773617534249      3.03141967151305      2.00041799582263
  C   6.68910966531422      3.11527658526657      1.27740651624008
  H   6.94799766201697      2.84453854477989      0.25591372033784
  C   5.36316876877790      3.37459504220068      1.62452090212535
  H   4.57300894210100      3.31908900391532      0.87561420992149
  H   4.82204529678255      6.26445567819521      5.58484571987959
