41
Coordinates from ORCA-job ALEFOP-oxo_0_6_tpss_d4_lanl2dz_631gpol_Co2.opt
  Co  3.90346293658035      4.83088777827213      5.60658985602505
  S   4.42839220356129      4.22911573981263      7.99326436031394
  O   1.99115280570576      4.41937877604606      6.17046803157714
  N   3.90346917025852      2.47738253827795      5.60657672150448
  O   3.90349721122156      6.55782377866225      5.60661410953348
  C   5.30260234780779      2.64116111910255      7.58569276408719
  H   6.26214433981037      2.97692396599676      7.16829877546713
  H   5.48871686516197      2.07463248768444      8.50490314719495
  C   4.55601711885515      1.80724390913738      6.57222560931025
  C   4.56526296237437      0.40683666091594      6.61599643743217
  H   5.08964805142613     -0.11280830642642      7.41516568016160
  C   3.90344073313582     -0.29911330041833      5.60658833374613
  H   3.90342969519968     -1.38767858604782      5.60659282982031
  C   2.76819198016605      3.64401568484541      8.32336381382410
  C   1.74884327268769      3.87572454462314      7.32759374501369
  C   0.41951670071100      3.45150092555728      7.64955080855615
  H   -0.35378458899451      3.63852358898333      6.90709445541913
  C   0.13308094838245      2.82597202103682      8.85584195220208
  H   -0.88747864943724      2.51070504075390      9.07006841707086
  C   1.14646234649062      2.60310548781321      9.80974704449791
  H   0.91485425823526      2.12303858260365     10.75841054119903
  C   2.45492081450426      3.02689198608450      9.53903501494467
  H   3.23933206251400      2.88461503763957     10.28152111204558
  S   3.37852336275580      4.22913121514329      3.21990916429362
  O   5.81577662195902      4.41940552877553      5.04267367703152
  C   2.50432320804451      2.64116995423075      3.62746754685937
  H   1.54477746305210      2.97692426810633      4.04485944033549
  H   2.31821537758012      2.07464546146720      2.70825332952680
  C   3.25090450327751      1.80724957156771      4.64093555507992
  C   3.24163132457294      0.40684210661428      4.59717578926813
  H   2.71723399867068     -0.11279894379666      3.79801197190011
  C   5.03871984725883      3.64402992639384      2.88979216456855
  C   6.05807731205154      3.87574494031512      3.88555147376968
  C   7.38740294516038      3.45152618505768      3.56358316678055
  H   8.16071168037486      3.63855571331105      4.30603065779538
  C   7.67382757913061      2.82598991671864      2.35729389503856
  H   8.69438521292339      2.51072384976735      2.14305664411602
  C   6.66043649923333      2.60311508041886      1.40340065116240
  H   6.89203755038435      2.12304445102493      0.45473642753196
  C   5.35197890310542      3.02690037020791      1.67412210257814
  H   4.56756102410611      2.88462094371977      0.93164278141658
