42
Coordinates from ORCA-job ALEFOP-OH_0_5_tpss_d4_lanl2dz_631gpol_Co2.opt
  Co  3.89063844090443      4.80965124380266      5.64540119824970
  S   4.42441537638540      4.21060962904471      8.03310439275629
  O   2.04121743851512      4.42421506043349      6.17263047220090
  N   3.90430452114598      2.49383569185576      5.62407473021653
  O   3.97901220111890      6.62879068169492      5.65518192345866
  C   5.33019107782645      2.65317422752997      7.57767913096195
  H   6.26500907732110      3.02208531008730      7.13273801718963
  H   5.55561958430689      2.08110688901878      8.48428199592744
  C   4.57388011517256      1.81989234441379      6.57542243698918
  C   4.58724851300676      0.41976281846268      6.60685787145295
  H   5.12450837874995     -0.10410146764723      7.39442475114934
  C   3.91269619538261     -0.27972545993919      5.60167058466658
  H   3.91649304449129     -1.36822523212154      5.59238851990556
  C   2.76452568363213      3.61936766017102      8.33724608408184
  C   1.77492823135082      3.84487426575911      7.32431302953439
  C   0.45412469670880      3.39666691564658      7.60655244579762
  H   -0.30634446709676      3.56527314992542      6.84615275061074
  C   0.14356601374037      2.77678515013059      8.81359890542642
  H   -0.87957343994915      2.44966895479115      8.99774767810339
  C   1.12824175155859      2.57079526252185      9.79810572109554
  H   0.87678240836075      2.08985088785159     10.74131843839600
  C   2.43388481603664      3.00505233590510      9.55511094017099
  H   3.20820610922705      2.87113174682094     10.31002362940381
  S   3.35610976908282      4.24852902635309      3.24834121156289
  O   5.76764779537173      4.45772580406128      5.09196183696707
  C   2.46742694118209      2.67459656177669      3.67848698860500
  H   1.52927468569083      3.02438725135182      4.13155591178841
  H   2.24694755786298      2.11643507046797      2.76201237749787
  C   3.23610014292133      1.83160837313848      4.66333497207497
  C   3.23233981432343      0.43201636546679      4.60909484374544
  H   2.69736037775547     -0.08245670492664      3.81384656888497
  C   5.01722789127618      3.66769501487620      2.92718709958758
  C   6.01750001810444      3.88595316403205      3.93158008423881
  C   7.33456878974656      3.43818497372226      3.62923729925365
  H   8.10359536413299      3.59708621470196      4.38344278038658
  C   7.63176544696811      2.82623698982382      2.41495492814355
  H   8.65253631761500      2.49841924847003      2.21859187982124
  C   6.63713430264122      2.62986330443113      1.43827264306387
  H   6.87799031843497      2.15661752086553      0.48841786648283
  C   5.33579860375225      3.06410815896636      1.69967815247965
  H   4.55289493324890      2.93818694391086      0.95208459451615
  H   4.89739516199192      6.88478865235079      5.41819231315388
