43
Coordinates from ORCA-job IGEVEW_2_5_tpss_d4_lanl2dz_631gpol_Co3.opt
  Co  2.50496504764912      2.37263142144476      3.33837138593268
  N   1.21311397064320      3.93597084104869      3.02239963892745
  C   0.41199477109535      4.02579447686052      1.92958508772489
  H   0.56101407375173      3.27332157475442      1.16229291094963
  C   -0.54906355709261      5.02350324997651      1.79356855193386
  H   -1.17160561365802      5.05626087951404      0.90351204882676
  C   -0.69547581584764      5.96338675664507      2.82364681428926
  H   -1.44457605102415      6.74896389732288      2.75419306875655
  C   0.13482959857517      5.87714303828908      3.94753100611179
  H   0.04814859867122      6.59188139554486      4.76268411917907
  C   1.08537276222405      4.85620584960037      4.01790210107210
  C   2.06282220437869      4.73966032590083      5.16468515580771
  H   2.92879640515066      5.38659998187298      4.97066512503041
  H   1.60857966681967      5.08297796048271      6.10412069980614
  N   2.54638963015751      3.33751013832046      5.28380773937693
  H   1.80366994019476      2.80020254647533      5.74705056470468
  C   3.78517618409063      3.19901360844054      6.11595283103879
  H   3.88082274992784      2.13385685680545      6.35977985918278
  H   3.65663616934533      3.74882895808780      7.05919475296723
  C   5.04333111815601      3.68777299886991      5.39200085994204
  H   5.87712430507169      3.61775629192485      6.10328162087862
  H   4.97089229929474      4.75525823345830      5.13305054258651
  N   2.76740674136803      1.71482109604685      1.36248197819056
  C   1.79477313197080      1.14053852442428      0.60886956018425
  H   0.85745249760686      0.92750688693672      1.11835509777195
  C   1.98549346739690      0.83420497848033     -0.73624925549440
  H   1.18446457039390      0.36980774156765     -1.30532225670736
  C   3.22181064715586      1.13826346728319     -1.32754554074467
  H   3.39880919437738      0.92361740951416     -2.37923360951223
  C   4.23110417852798      1.70935852004358     -0.54512256841055
  H   5.20658922454406      1.93736567738890     -0.96910285960933
  C   3.97555636864796      1.97127961481147      0.80504489217426
  C   5.05441825752940      2.44657184316994      1.75112469099183
  H   5.65704382394560      1.57906225411962      2.05440973039105
  H   5.73249560730894      3.16060300732764      1.26697614243906
  N   4.48061634840507      3.04108930420038      3.00371949496589
  H   4.35410063655487      4.04975978758792      2.84105665075804
  C   5.43506742411711      2.87315240670797      4.15850613991532
  H   6.43676814074779      3.17603809757626      3.82102965466789
  H   5.46882443758584      1.79960702255999      4.38660417271412
  N   1.62142111559653      0.87630548117685      3.92585488965464
  N   1.69916884066732     -0.32767447836619      4.13143986121975
  N   1.72035688797648     -1.47027992419822      4.33392664941365
