45
Coordinates from ORCA-job IGEVEW-OH_2_4_tpss_d4_lanl2dz_631gpol_Co3.opt
  Co  2.86388653266834      2.06665841169343      3.48596404092016
  N   1.59048049074049      3.62707366891570      3.27453203840335
  C   1.18004564596490      4.10176730499045      2.06950402405829
  H   1.55247355954263      3.57575677295038      1.19653442790618
  C   0.32366159966446      5.19486638762136      1.95648907534834
  H   0.01773664305062      5.53604149637315      0.97097124490794
  C   -0.12178603040162      5.82966882957066      3.12338522316473
  H   -0.78815051598426      6.68760238208700      3.06948588779456
  C   0.31007983557313      5.34611593654534      4.36262865819494
  H   -0.00898740724141      5.81753130396738      5.28959507799589
  C   1.16421682862331      4.24010102815718      4.41251760429030
  C   1.61213818747510      3.62866235581287      5.72002167365326
  H   1.70257400404527      4.40227519966211      6.49435073661174
  H   0.84922284360296      2.91589939020833      6.06327886260964
  N   2.88884164955050      2.88745886189865      5.55881907143404
  H   2.83320314580899      2.01547519638903      6.09157885053295
  C   4.12509392157068      3.61497696972990      5.97706397793432
  H   4.85825224390263      2.85039887685447      6.25658404159331
  H   3.89526139161436      4.20815186240673      6.87399990186510
  C   4.71164834283107      4.51365587498344      4.88381779301005
  H   5.49264604189020      5.12654577391796      5.35240757086944
  H   3.96172625495163      5.22114262373919      4.49773009023697
  N   2.80293547991312      1.56656578391566      1.36662702855291
  C   1.82593053217566      0.93514567855376      0.67516506375853
  H   0.87430684496802      0.80129528371931      1.18245979488038
  C   2.02099779159517      0.48602439196372     -0.63026958215794
  H   1.21430966180558     -0.02022650522734     -1.15397112385772
  C   3.26586093159209      0.70233753932457     -1.23854097020829
  H   3.44790172151138      0.36731511176993     -2.25720281447421
  C   4.27423165889777      1.35718573832190     -0.52175496249464
  H   5.25019531164731      1.54061458841234     -0.96548470110241
  C   4.01137659354372      1.76898386367078      0.78821738685452
  C   5.04940352082490      2.40698828330202      1.67685283530293
  H   5.63991528093471      1.62996550548417      2.17941528684235
  H   5.73218382551226      3.05342545436169      1.10919177404324
  N   4.37726969026718      3.19974995299002      2.75304904282491
  H   3.89505430142053      3.99864172902539      2.32047343482230
  C   5.36854541605238      3.72700900427078      3.74479084170832
  H   6.07372235198153      4.36704990866291      3.19515201967710
  H   5.91955007904885      2.86181274027750      4.13093538864470
  N   1.54660299136363      0.86042687467498      4.03188554341875
  N   0.34554323844229      1.03128477903713      3.79087274641889
  N   -0.79647893045239      1.10375324117230      3.60640705591729
  O   4.11944561753683      0.87806947563319      3.90874300896231
  H   3.69709087997317      0.03214506820828      4.19702602832990
