49
Coordinates from ORCA-job IGEVEW-CH3OH_2_5_tpss_d4_lanl2dz_631gpol_Co3.opt
  Co  2.56664117380639      2.14539934561812      3.41133895614930
  N   1.42075650019813      3.89928178340618      3.13865702372296
  C   1.04662374120270      4.43676382874803      1.95356439790356
  H   1.33272606075957      3.87905692164140      1.06511119700370
  C   0.32884976595109      5.62962512141285      1.87381117705657
  H   0.03944028894042      6.02570380260698      0.90401244728263
  C   -0.00395444408851      6.29403693823157      3.06267298390508
  H   -0.55673094005171      7.23044128527655      3.03678384272349
  C   0.38383857956450      5.73743157989105      4.28733931199671
  H   0.13670822506097      6.22663605763044      5.22692867607380
  C   1.09175088450482      4.53145940761695      4.29213327656423
  C   1.45467325040314      3.80630205775848      5.56825780214733
  H   1.55212519968448      4.50971082233419      6.40603052434427
  H   0.63968017730153      3.11028104871336      5.81091908572433
  N   2.69911669382614      2.98663124656579      5.41407753788195
  H   2.58288342580103      2.17581510452079      6.03051719286680
  C   3.94876346707066      3.69358990680284      5.84991949937406
  H   4.68188290236598      2.91767830881938      6.10758559162941
  H   3.73427275041431      4.25644571281354      6.76962797683979
  C   4.54368041603592      4.62398869731585      4.78892650603791
  H   5.31575906820648      5.22690863746238      5.28492020423190
  H   3.79150388058619      5.33804656774485      4.42149899140273
  N   2.66295587612069      1.63468141317649      1.32928100527726
  C   1.66032763730630      1.04514348844482      0.63417392636868
  H   0.74151303232473      0.85773270097373      1.18338459037058
  C   1.78849961564557      0.70504967210981     -0.71209304009865
  H   0.96036008272001      0.23068198052524     -1.23219444827536
  C   2.99444345144963      0.99205237995802     -1.36647358733668
  H   3.12656947229140      0.74341406426674     -2.41710605245066
  C   4.02528703305884      1.61619850500525     -0.65382890954385
  H   4.96766862699886      1.86611456996501     -1.13612910113343
  C   3.82850496797719      1.92180959629425      0.69628678464357
  C   4.88574478015384      2.56899218306379      1.55828336849436
  H   5.51356563157940      1.80256647805274      2.02957363708029
  H   5.53637907346693      3.22602236320910      0.96418320970890
  N   4.22413284259354      3.32614640344266      2.65672588034488
  H   3.71728057167564      4.11623131453679      2.23801648900499
  C   5.21344853066597      3.88724063152088      3.62360186437936
  H   5.88787138177507      4.56830503886334      3.08387702087157
  H   5.81627564160937      3.04681382685263      3.99096134971203
  N   1.21192454178767      0.97229968784449      3.85786747618899
  N   0.46210367350335      0.01482091137114      3.88351639277934
  N   -0.27639337163902     -0.88452276288014      3.90231826135178
  O   4.15960779202422      0.69471893454012      3.80878557620268
  C   4.03915079135350     -0.69270021628036      3.34660664022861
  H   5.02965159168363     -1.15790687287211      3.35344504677709
  H   3.34567998101477     -1.25079460805114      3.98498207673521
  H   3.65521236876978     -0.63335459253858      2.32755050205648
  H   4.49894331454436      0.67375872567317      4.72606983739892
