43
Coordinates from ORCA-job IGEVEW_2_1_tpss_d4_lanl2dz_631gpol_Co3.opt
  Co  2.58395854668093      2.44734740763306      3.37945013694573
  N   1.40309148217106      3.86982985176397      3.07457727380759
  C   0.61018203802639      3.95472745500950      1.97868954898685
  H   0.74937816281158      3.19300886974899      1.21870682933824
  C   -0.33574268866988      4.97164903428389      1.85657435624406
  H   -0.95598784828612      5.01596210071955      0.96520830421186
  C   -0.47301666225182      5.90462796862602      2.89264859992810
  H   -1.21218271252613      6.69955201288198      2.82558761063563
  C   0.34156170833143      5.79494944556541      4.02705763988888
  H   0.24737806653032      6.49284411892165      4.85595955143646
  C   1.27850698739835      4.76332405120291      4.10026188089744
  C   2.21986974748223      4.53750672809415      5.26023447023051
  H   3.11379984667547      5.16847026826745      5.16470247135757
  H   1.75021631392766      4.78820474872640      6.21964021882511
  N   2.63253310310093      3.10216551865248      5.23004405859328
  H   1.87865069363761      2.53163690687445      5.64170923739363
  C   3.91705556118718      2.74581491160983      5.92477217603735
  H   3.94445642481350      1.64880390435971      5.94090781310196
  H   3.86499076913610      3.09435511220361      6.96583211490323
  C   5.16818479302870      3.30942598091569      5.23849034146417
  H   6.03731375160278      2.91854937219209      5.78329479904331
  H   5.22203157779726      4.40394689593935      5.34512064873121
  N   2.85088609916089      1.69648803489660      1.59513046182357
  C   2.28616362438061      0.56394321298976      1.09567124119019
  H   1.50554670919791      0.09707196221050      1.68216661047867
  C   2.68552916186807      0.00915197959172     -0.11892723381668
  H   2.19882072099353     -0.89595240393284     -0.47236680515290
  C   3.71289702228344      0.62128110845510     -0.84640244018513
  H   4.05019099068857      0.20366012230188     -1.79225077196960
  C   4.30713850089324      1.77898003640039     -0.33001290495928
  H   5.11378237349236      2.27943578154697     -0.86078393518489
  C   3.85323454829985      2.29612277120768      0.88279895858882
  C   4.38350584001761      3.56912823391053      1.47994689860637
  H   5.43810965082796      3.73385069372054      1.22561622411676
  H   3.80770206163621      4.42559270180638      1.10350765976955
  N   4.19210612227959      3.53222182441523      2.96551096231452
  H   4.08566311685707      4.50496647552951      3.27587631233059
  C   5.32396776501703      2.93446201816063      3.75874930512850
  H   6.27791105968826      3.31651873965033      3.36998523617931
  H   5.30676939262948      1.84597960676393      3.60410297511377
  N   1.39464164703134      1.19857609238988      4.05859769053632
  N   0.37792974177341      0.74325508930969      3.52848179386477
  N   -0.59202581162228      0.27406325448316      3.10123167922428
