45
Coordinates from ORCA-job IGEVEW-OH_2_6_tpss_d4_lanl2dz_631gpol_Co3.opt
  Co  2.84538143953522      1.87277213185624      3.54644518670705
  N   1.55527081573638      3.64013588521184      3.22267355654053
  C   1.16182809312209      4.10785914861293      2.01359072451658
  H   1.46751247242882      3.52171258559675      1.15104353559261
  C   0.40502395869858      5.27152920445040      1.87575942377314
  H   0.10549855402680      5.60863842254192      0.88677342972693
  C   0.05111524523721      5.98436414246669      3.02946706114381
  H   -0.53029460648384      6.90089331829762      2.95833975983103
  C   0.45864162838955      5.50127315246670      4.27791434042193
  H   0.19970289750700      6.02863941639783      5.19355349235376
  C   1.20583019078661      4.31939210566640      4.34064284500183
  C   1.59911667339568      3.68818744460698      5.65800905320797
  H   1.75458822287692      4.45788904260096      6.42582076881814
  H   0.77744347969065      3.04545244112419      6.00379796792455
  N   2.81463606248289      2.83569064600878      5.52831072128420
  H   2.68939468132539      2.00460786778537      6.11497875453975
  C   4.09238675351684      3.48965731072609      5.95165920352549
  H   4.81356234322199      2.68271355924766      6.12248498582471
  H   3.90878923898618      3.99626414848286      6.91065942753167
  C   4.64954698238080      4.48656951810603      4.93070599739940
  H   5.41367638440911      5.08314099574690      5.44574607058287
  H   3.87629104360492      5.19881850057577      4.60493311744217
  N   2.86450017681951      1.43852733882015      1.45266510939078
  C   1.90500731607803      0.76367967637981      0.77522230439080
  H   1.01188179442571      0.49596140635304      1.33099865899587
  C   2.05031783509893      0.42377651140136     -0.56868928843878
  H   1.25952103642696     -0.12369271838482     -1.07489973127929
  C   3.22480962426201      0.79826765390768     -1.23592430498482
  H   3.36729614474463      0.55098078645951     -2.28552360821365
  C   4.21312303728304      1.49944129671178     -0.53556857302835
  H   5.13492311554885      1.80778295206479     -1.02348301446132
  C   4.00644324462024      1.80094598424137      0.81388666656788
  C   5.03547779531840      2.49368818098154      1.66960354701754
  H   5.67360506846437      1.74345285037338      2.15703835733010
  H   5.67584538185955      3.15703011956533      1.07159046910212
  N   4.35476394520891      3.24745703032534      2.75679428746657
  H   3.80597345963542      4.01245200716413      2.34713959005756
  C   5.32788154444229      3.81794494578051      3.73191964372458
  H   5.95820075101887      4.54794138477206      3.20154687066071
  H   5.96852866280885      2.99250986232351      4.06318039511835
  N   1.31202718513318      0.86793554711452      3.94404596401471
  N   0.10858753338746      0.68822281071006      3.88474283226027
  N   -1.04125376717582      0.50756233138469      3.83743791897878
  O   4.29493449952613      0.87616481184752      4.06956178759000
  H   4.14282206018838     -0.07084375887464      4.29470469404902
