44
Coordinates from ORCA-job IGEVEW-oxo_2_3_tpss_d4_lanl2dz_631gpol_Co3.opt
  Co  2.88410138829334      2.08333437654579      3.42656685018410
  N   1.61978895749526      3.60765076837022      3.08054899947420
  C   1.16400153562665      3.99790148595544      1.86079930448679
  H   1.51684306389218      3.42760339561699      1.00800986347260
  C   0.28046657307160      5.06333135071207      1.71256029857382
  H   -0.06614676416841      5.33858686831523      0.71999999573101
  C   -0.14765164300945      5.75460381414400      2.85486725553834
  H   -0.83999447988512      6.58917777521302      2.77049532529321
  C   0.32178855561231      5.35193448807012      4.10906404894793
  H   0.00270530141329      5.86066045744724      5.01605640689342
  C   1.20148989816516      4.26941098386472      4.19384067025554
  C   1.68630029580322      3.72870805581825      5.51515460637730
  H   2.07245266042388      4.53740951136908      6.14738792099931
  H   0.85137473754403      3.26390576591771      6.05515440897850
  N   2.76442120867702      2.69482112330373      5.32479972517213
  H   2.45557420205379      1.81554843511287      5.75877090471969
  C   4.08198335488815      3.07843310182789      5.93587936417327
  H   4.68965678576721      2.16700292611495      5.97377949280782
  H   3.88044173221805      3.40032219387193      6.96696692300596
  C   4.79574034321968      4.18336452248329      5.15503624421454
  H   5.62070804052092      4.55063762622153      5.77908912191912
  H   4.13595474214959      5.04874095002922      4.98736620630257
  N   2.90740095942163      1.49381405243917      1.54667755125626
  C   1.99221377531729      0.66559452899951      0.99537192218336
  H   1.22076006409179      0.29244007756773      1.66132837035785
  C   2.07218874604141      0.30750645155920     -0.35114488711401
  H   1.32521292380811     -0.36335083670866     -0.76728936234111
  C   3.11705316828206      0.81744274631256     -1.13171818914705
  H   3.19788547994632      0.55766843858190     -2.18491783031289
  C   4.07166271299620      1.65456567149526     -0.53867996495728
  H   4.90899838311604      2.04720041345642     -1.11107908653520
  C   3.95265216504697      1.96482445999698      0.81722401848443
  C   4.99250475810933      2.72368067168759      1.59732578425306
  H   5.75679253701536      2.01749650466175      1.94906139785631
  H   5.48841941507243      3.49288534282285      0.99196478287080
  N   4.37346931522491      3.34034747875934      2.81450322284159
  H   3.87189011548142      4.19344303778258      2.53822745412430
  C   5.40702922583365      3.69357335647139      3.84077778802817
  H   6.05769717412700      4.46747108330898      3.40954554635270
  H   6.00448895544891      2.79071106880632      4.00997285527075
  N   1.36962269197911      0.90570811308891      3.84118903568479
  N   0.24854658481540      1.41837554058924      3.95034546282511
  N   -0.84287247459886      1.79650002737510      4.07104405977291
  O   4.02728283365095      0.96121179462043      3.83467613072374
