44
Coordinates from ORCA-job IGEVEW-oxo_2_1_tpss_d4_lanl2dz_631gpol_Co3.opt
  Co  2.87234104644523      2.08102483885318      3.45794818263996
  N   1.62026427066392      3.63021005820188      3.12183246318031
  C   1.17585940867084      4.06144830068080      1.91341072413883
  H   1.51019043022802      3.49914453937772      1.04668627846437
  C   0.32882819454204      5.16076887786723      1.79267697984457
  H   -0.01225049829646      5.47153417260979      0.80870116874731
  C   -0.06469614803037      5.84258887014682      2.95273358923767
  H   -0.72229898372496      6.70672853411890      2.89041878684061
  C   0.39428802976142      5.39468688204255      4.19657827752298
  H   0.09853270929675      5.89602565356695      5.11553566739269
  C   1.23037296829081      4.27592192141281      4.25318867788912
  C   1.67891347962050      3.66132387174558      5.55537176189903
  H   1.96648633069483      4.43379910394046      6.27867908441150
  H   0.84761675179022      3.09159682812077      5.98968925109711
  N   2.82757400797392      2.70795305829838      5.35745243541321
  H   2.57154654157302      1.81642859747301      5.80019182474749
  C   4.12825438119070      3.16364966820688      5.94441870884356
  H   4.77105709874496      2.27740504833791      6.00167600226490
  H   3.92537083234749      3.50786534590640      6.96799681701048
  C   4.79438133729089      4.26586363722605      5.12158817695852
  H   5.62384639361466      4.67288662592176      5.71399515083018
  H   4.10741404072482      5.10684842355082      4.94007898697747
  N   2.86092051192053      1.46331607794329      1.58857700840844
  C   1.96382829431270      0.61203161222427      1.03762738959577
  H   1.18954215056531      0.21778600532035      1.68289703157592
  C   2.04822704227240      0.24107540211956     -0.30443315158949
  H   1.31125231191597     -0.44663299866740     -0.71074428630982
  C   3.08376516083439      0.75774220805748     -1.09208219533563
  H   3.16780509752817      0.48931368431038     -2.14276746549816
  C   4.02631641100434      1.61059625525532     -0.50409604299143
  H   4.86095470023314      2.00719840158514     -1.07766992891530
  C   3.90285731283148      1.93165119140082      0.84890243167180
  C   4.94592487410815      2.69603052717506      1.61515869511801
  H   5.70568758634758      1.99041501697452      1.97614401014937
  H   5.44219647174714      3.45742416833255      1.00013106186554
  N   4.33398232587911      3.33253372369346      2.82500377602718
  H   3.81403759775118      4.16996921191513      2.53463798210640
  C   5.38417073559581      3.73655008594588      3.81466180805568
  H   6.01085941134035      4.50177181545522      3.33496522204997
  H   5.99821501510231      2.84862309128102      4.00251867579668
  N   1.32463865040297      1.07946521584555      4.05599368729878
  N   0.23031536516970      1.27449202550235      3.52109522500399
  N   -0.83820315434203      1.39375245925715      3.08155949861696
  O   4.05171350406585      0.96139196146604      3.82767057094726
