49
Coordinates from ORCA-job IGEVEW-CH3OH_2_3_tpss_d4_lanl2dz_631gpol_Co3.opt
  Co  2.71272332965134      2.19148135124763      3.26742801846384
  N   1.42473589744181      3.87677778217708      3.02017707109712
  C   0.95243325203720      4.35946111108949      1.84521752642073
  H   1.29223345465291      3.84628833547631      0.94795128635066
  C   0.07595667230471      5.44114157195352      1.78594879008631
  H   -0.28549067365481      5.79793230766374      0.82508471518045
  C   -0.32454161981806      6.04598010577387      2.98669934153031
  H   -1.00691229020933      6.89290467462072      2.97796576288193
  C   0.15924453895284      5.54436353585956      4.19964330583035
  H   -0.14053411252561      5.98814770379296      5.14673166971681
  C   1.03132750798917      4.44980065747448      4.17957146704189
  C   1.53315712024695      3.80882230854296      5.45853263422037
  H   1.88603832174129      4.57728713181067      6.15802258130337
  H   0.70404674574694      3.28945400671280      5.95375283168754
  N   2.63788621435109      2.81614340371785      5.21173921488264
  H   2.40716449790621      1.94571720840054      5.70252636138326
  C   3.95268456416513      3.27498128066440      5.77148593939251
  H   4.61095246240244      2.39876820934575      5.78756293773096
  H   3.78575664448110      3.58828173719519      6.81126775057322
  C   4.57287004470940      4.41652952579040      4.96402731518988
  H   5.35542353373643      4.88265628372738      5.57635117688353
  H   3.83379668964543      5.20527018500217      4.75777216013571
  N   2.85882570421835      1.58827182175924      1.35786082730669
  C   1.93270610188811      0.83520099623617      0.71741450821368
  H   1.09730041936986      0.49803606756910      1.32330152986550
  C   2.05780085618301      0.50651839472889     -0.63257009285161
  H   1.29480556569968     -0.10560193195801     -1.10614781589847
  C   3.16482966836773      0.97764036985629     -1.34856750981023
  H   3.28396638688768      0.74387956767603     -2.40407639049996
  C   4.12032223646281      1.75820785310843     -0.68546185558431
  H   4.99381966627874      2.14018517335298     -1.20888371438275
  C   3.94283578862999      2.03957570080609      0.67025803552333
  C   4.94150783102719      2.79920679723271      1.49794614563436
  H   5.70340997583612      2.11026162918880      1.88868237817383
  H   5.46543646362541      3.56878969616028      0.91569318065713
  N   4.24493627646262      3.40928033652230      2.67516209900849
  H   3.69059461762677      4.20791315768676      2.33906198795520
  C   5.23205511076783      3.93702617358171      3.67143019859576
  H   5.79751505568410      4.75249183676229      3.19918481090378
  H   5.93894807912692      3.12596163871518      3.88881982178794
  N   1.29921818695420      1.01752526088979      3.51349791592700
  N   0.25314520500250      1.30724783724188      4.10773318176338
  N   -0.76833292446739      1.48516075146855      4.62505578485107
  O   4.16551648564826      0.61704613796543      3.93761869025565
  C   3.90623068378144     -0.78904902353278      3.60576883363506
  H   4.19266414954906     -0.99625876725473      2.56860301150141
  H   4.46253023957110     -1.42929690521631      4.29746141044364
  H   2.83285966058726     -0.92772435816616      3.73720899142681
  H   5.13129971327594      0.75706336957946      3.87878417761409
