63
Coordinates from ORCA-job GOGRUQ_1_3_tpss_d4_lanl2dz_631gpol_Co3.opt
  Co  0.58172155591080      6.60652552955485      2.92063169245526
  O   1.14365428344694      6.01046721345129      1.23567476398625
  O   2.15240696143450      7.61586922938318      2.72943990678403
  N   -1.01835491215038      5.57022898290772      2.79137464743101
  N   0.15942536779748      7.50780118304912      4.55409196872880
  N   1.69183796561216      5.04107447917240      3.88004731271710
  C   0.93557248996360      4.84123947529927      0.71703949087947
  C   -0.05587478588267      3.98106212983065      1.21992590995093
  H   -0.18538142544067      3.00479938464800      0.76683102558302
  C   -1.04896104323387      4.39894288999125      2.12602455191040
  C   -2.24178545015450      3.47379627498994      2.29406606106037
  H   -3.12815508099386      3.87883262011665      1.78446940781820
  H   -2.50372458144845      3.33608599615988      3.35108318535778
  H   -2.02485680533296      2.49490227167134      1.85680768511719
  C   -2.26168536075431      5.97316431877684      3.47013909044355
  H   -3.10985680169759      5.80591100815123      2.79278484030571
  H   -2.42801716474726      5.34638709328905      4.36392491765834
  C   -2.22504153958058      7.43849405946775      3.88162432122859
  H   -3.22508730931880      7.72735496927866      4.23121709387167
  H   -1.98218928489059      8.07070399275820      3.01395106858215
  C   -1.23076968520421      7.68255299192655      5.00798426886897
  H   -1.35564512014570      8.70474056511955      5.39061807043233
  H   -1.44963410149801      6.99198913358508      5.84136520893014
  C   1.12243951183824      7.93766579812221      5.39183757882305
  C   0.75621128354231      8.34655642832561      6.80764903106155
  H   0.12501457859214      7.59339558466963      7.29723934391744
  H   0.19941106826706      9.29480994698195      6.81229325172413
  H   1.66050577631347      8.48843220598744      7.40656762706434
  C   2.47317927498980      8.08042632846658      5.02354841308089
  H   3.17355348499630      8.37115882649208      5.79880164453597
  C   2.91405534646400      8.03825691879691      3.69027387909712
  C   1.79074451941569      4.50274577847187     -0.44392149891329
  C   1.79256833242898      3.22251729047753     -1.03656192768687
  H   1.14857959768858      2.43242441290081     -0.65713270214030
  C   2.63616537067343      2.94685284045457     -2.11538430729236
  H   2.63266250894553      1.95456830984348     -2.56206106299055
  C   3.48051607832843      3.94420680929183     -2.62397312886906
  H   4.13161170906997      3.72717913322307     -3.46872402492347
  C   3.48158910497870      5.22169378741811     -2.04453221640784
  H   4.13040706637151      6.00043437341793     -2.44133657984939
  C   2.64762698513115      5.49939919460717     -0.96047159360427
  H   2.63291712621262      6.48715390934863     -0.50688875973998
  C   4.27077119632775      8.46722447152119      3.28559964360907
  C   5.08593238938226      9.26215903644685      4.11817341130740
  H   4.71244664366999      9.61938430696462      5.07556936180133
  C   6.36798106284468      9.62982196683237      3.70305951530333
  H   6.98704220207104     10.24983571885692      4.34845204543597
  C   6.85083206802665      9.21135893902298      2.45471942741774
  H   7.85023062048815      9.49982951218715      2.13437477511692
  C   6.04250258765424      8.42893329326307      1.61655460911907
  H   6.41500986015266      8.10778408066089      0.64547741781371
  C   4.75921371772155      8.06222686014053      2.02509602385236
  H   4.11943286387936      7.46204532733588      1.38273044460021
  C   1.19468991360648      4.40143504500604      4.95737493009275
  H   0.21332856521292      4.73148995139205      5.29153913143977
  C   1.88992724958422      3.38169097678911      5.60817037196456
  H   1.45247802425499      2.89072949300939      6.47421100150350
  C   3.15087151034917      3.01261318788247      5.12175722861700
  H   3.71967403805587      2.22163758600044      5.60626093911961
  C   3.66701056150168      3.67757720393773      4.00339655932455
  H   4.64150131663885      3.42332658534154      3.59386479831924
  C   2.90640131607093      4.68692876370086      3.40946543846013
  H   3.25416539656745      5.23796402383159      2.53991346879319
