69
Coordinates from ORCA-job GOGRUQ-CH3OH_1_3_tpss_d4_lanl2dz_631gpol_Co3.opt
  Co  0.64721440320509      6.62571524545233      2.93286836781101
  O   1.25968581459751      5.97921328874637      1.27201017353261
  O   2.26295903740705      7.61827966992398      2.79273988297728
  N   -0.93835583537660      5.54335868900624      2.82864570484537
  N   0.27185979860723      7.40084775857748      4.66133012140021
  N   1.76120316721932      4.99692905047057      3.90158308240421
  O   -0.14120671420960      8.46403624559199      1.83051767107766
  C   1.05806487165073      4.79546304906751      0.78131720217935
  C   0.05304856027131      3.95162450382292      1.27633283059824
  H   -0.05917739791375      2.96246795237522      0.84737384312149
  C   -0.95303592027379      4.37124632161117      2.17260071070677
  C   -2.13267466569192      3.42933412804550      2.34476985988863
  H   -3.03881192458273      3.84289369896274      1.87883167698607
  H   -2.36071256759554      3.25606422056521      3.40483045976777
  H   -1.92260771625019      2.46613977777216      1.87112018783370
  C   -2.17080072993288      5.91151135392593      3.54649907442387
  H   -3.02821065918951      5.78413693197673      2.87031602362943
  H   -2.32731762716625      5.22641870644128      4.39865352492436
  C   -2.13719446904232      7.34512534569022      4.05726589657340
  H   -3.12717913843838      7.58229628205483      4.46992133229395
  H   -1.93322157101951      8.04591371785795      3.23876021079472
  C   -1.10624677842246      7.52647798808578      5.16255682598810
  H   -1.23169777440197      8.52113731571151      5.61260070942066
  H   -1.28991450920533      6.78365373009909      5.95984965719378
  C   1.25248745561819      7.76398765289167      5.49926033427913
  C   0.92247656326205      8.08613841464072      6.94672444426345
  H   0.31130876982491      7.29834307450678      7.40689815475668
  H   0.35442906862863      9.02483763483270      7.01967225335222
  H   1.84007916139848      8.20359279957826      7.53034916214945
  C   2.60505799726790      7.90925685038195      5.11746067864965
  H   3.32156826814126      8.12561149095488      5.90249276414574
  C   3.03820655622131      7.94421124563305      3.78745201985490
  C   1.94798341232488      4.41941822955712     -0.34429780232394
  C   1.86909652905031      3.16971166873686     -0.99362627347448
  H   1.13037593075383      2.43114238947548     -0.69141854772291
  C   2.74197755457785      2.86108343336683     -2.03981850703079
  H   2.67160773435899      1.89289349186179     -2.53162148450455
  C   3.69972266357199      3.79498457794976     -2.46019679928456
  H   4.37462394697953      3.55237943618239     -3.27888090171383
  C   3.78235008985254      5.04286116184800     -1.82551408371658
  H   4.52104932865382      5.77320766871193     -2.15117607383550
  C   2.91631621852341      5.35216422830845     -0.77545051918239
  H   2.96600957052719      6.31743839765632     -0.27849058827917
  C   4.41381188736169      8.34574162699493      3.41528176397848
  C   5.23189434837550      9.10484448122088      4.27756618335218
  H   4.84570784452613      9.45361517826543      5.23317056372356
  C   6.53110727619003      9.44738616865440      3.89475457668189
  H   7.15203124791334     10.04022196174424      4.56357710531981
  C   7.02941151868943      9.03891534126311      2.64914032596363
  H   8.04227796276504      9.30699511965537      2.35441001452551
  C   6.21892548287472      8.29210222573098      1.78149420206172
  H   6.60369845670839      7.97638131516916      0.81329565195121
  C   4.91804462441888      7.95231413039243      2.15788773040252
  H   4.27861251821375      7.37546938209643      1.49428966259357
  C   1.23392550411341      4.32975261294738      4.94587090781335
  H   0.24380384710437      4.65507161699273      5.25967796596848
  C   1.90609753003776      3.29048835567698      5.59042517541441
  H   1.44241282854811      2.77717833615383      6.42962934036633
  C   3.18018117374842      2.93067263414915      5.13182358794314
  H   3.73280716376796      2.12523837677851      5.61141065226496
  C   3.73002802418683      3.62386423921673      4.04735306312458
  H   4.71575618687909      3.37805068587133      3.65991509118294
  C   2.98692818933220      4.65027689440260      3.45949471318186
  H   3.36020012277656      5.22166614346143      2.61356307988306
  C   -0.63612266202424      8.29318828090067      0.47917930301835
  H   -0.79377849053982      9.27370840890370      0.01337601961458
  H   0.05381688852266      7.68626748620052     -0.11801824912556
  H   -1.59392880857188      7.77443494782186      0.57280843128186
  H   0.76109286029899      8.84915523042504      1.78366987675821
