64
Coordinates from ORCA-job GOGRUQ-oxo_1_1_tpss_d4_lanl2dz_631gpol_Co3.opt
  Co  0.48844150074313      6.81097356669651      2.81509860015241
  O   1.13063953341710      6.09646758729706      1.17333467067215
  O   2.14246964544081      7.75316467310256      2.65776056478834
  N   -1.09380500759719      5.69578655295291      2.78518399262955
  N   0.20358097080212      7.39806485647248      4.61732294981734
  N   1.56810684532434      5.22586011470775      3.66396412784639
  O   -0.32953748089951      8.08066942648043      2.06167641113600
  C   0.92694050998384      4.88184224812161      0.77211465017391
  C   -0.09677898113331      4.06657022183192      1.27779892562374
  H   -0.22307862004457      3.07677474841977      0.85383270617704
  C   -1.12848494260886      4.53922008115643      2.11869198059604
  C   -2.37611853047728      3.67525986092737      2.20641177432407
  H   -3.23298305608675      4.18081967499376      1.73969312967813
  H   -2.64633041897840      3.46400330743887      3.25009977195733
  H   -2.21706806000358      2.72635191651908      1.68705747030175
  C   -2.37192791252744      6.22913199978251      3.29221065123617
  H   -3.05116255275286      6.38996773736198      2.44199771203485
  H   -2.83372619468560      5.47381418535707      3.94819316030392
  C   -2.21465079044389      7.52278787532203      4.07903387434995
  H   -3.18138876743128      7.75328105295513      4.54637657864628
  H   -1.95431764442986      8.35941970768388      3.41782964877625
  C   -1.16117505152164      7.39233570559445      5.17248989251082
  H   -1.25844716387876      8.24069456673939      5.86107245472427
  H   -1.33026677898893      6.47173470424001      5.75976949041091
  C   1.21466689980614      7.74194322546736      5.42225428121958
  C   0.94969171228271      7.91816662541007      6.90873065960862
  H   0.34800268147444      7.09472366362724      7.31349449843290
  H   0.40619904390716      8.85488671676238      7.09973544560730
  H   1.89612212340822      7.96387157608506      7.45528650075443
  C   2.53376658976108      7.97932431573740      4.98727883345112
  H   3.27356648475052      8.18821488580532      5.75158064948200
  C   2.91958451204448      8.07727454501334      3.63665762818798
  C   1.85471503798748      4.41940419127872     -0.28636370797446
  C   2.07358931351296      3.04914527447914     -0.53829033635718
  H   1.56165777198040      2.29124390696401      0.05124366771983
  C   2.97888085531080      2.65384646313133     -1.52635526333428
  H   3.14822999739486      1.59471983148400     -1.71041586546039
  C   3.66727895392917      3.61776497630161     -2.27719975291389
  H   4.36487283796929      3.30616811861028     -3.05238694100891
  C   3.45527735422156      4.98257145908850     -2.03032655475939
  H   3.98299849600855      5.73135651675111     -2.61806433223593
  C   2.56094812402885      5.38412768953213     -1.03649783549002
  H   2.38037415156015      6.43823503018237     -0.84004798906328
  C   4.26844013507247      8.53546943851523      3.23490202454680
  C   5.11993410793899      9.23126061309150      4.11919927267121
  H   4.78471104419015      9.48614574174465      5.12214376681045
  C   6.38907222553927      9.63477584423950      3.69838560198366
  H   7.03689511047534     10.17855166371994      4.38291609594694
  C   6.82225442964146      9.35031918589422      2.39513280864798
  H   7.81198586626699      9.66649786066896      2.07102131039268
  C   5.97700223873145      8.66781190972011      1.50687108579405
  H   6.31067497935224      8.45356578849136      0.49331344470176
  C   4.70568757313508      8.26720607289542      1.91946593330985
  H   4.03500225148134      7.74906368927961      1.23822718090388
  C   1.04718438723084      4.48116201099498      4.66009273994439
  H   0.03739686200222      4.74102418639572      4.96511800798819
  C   1.75224945712064      3.43702129785624      5.25732637814309
  H   1.29140830624710      2.86034077934352      6.05549619294349
  C   3.04832785652587      3.15420433388410      4.80744685262314
  H   3.62503741006068      2.34687476481983      5.25396872077138
  C   3.58567436512139      3.92696247894607      3.77260247768595
  H   4.58584922564978      3.74450956881489      3.38810063612823
  C   2.81490340587641      4.95315366605977      3.22431039990619
  H   3.17335476977963      5.57619372075725      2.41053029342273
