65
Coordinates from ORCA-job GOGRUQ-OH_1_6_tpss_d4_lanl2dz_631gpol_Co3.opt
  Co  0.35935621142133      7.00333717235505      2.66265468887866
  O   0.95038057026701      6.16606702230842      0.89158033142732
  O   2.12338992206043      8.02404843232626      2.65357524092429
  N   -1.18587452187408      5.66949374650882      2.73940681750643
  N   0.05573435183940      7.61107972793558      4.58756602697866
  N   1.66958105098406      5.32182824111030      3.54417135490760
  O   -0.52712350025412      8.40119475281275      1.78501976044724
  C   0.83899983445248      4.92510272340956      0.62072023564978
  C   -0.11312430924597      4.07064570741329      1.27401102636292
  H   -0.17936134271846      3.05087314376396      0.90832583909543
  C   -1.12624680400327      4.45017120472050      2.18852213710369
  C   -2.19345496105722      3.41444522970244      2.49402976745564
  H   -3.17480693358530      3.74543103746239      2.12527851614326
  H   -2.29294368949030      3.25417568714163      3.57663534207691
  H   -1.95905502954894      2.45626504456663      2.02121327184146
  C   -2.39048124214045      6.01015522791895      3.51008459643775
  H   -3.27389846900002      5.87003691102438      2.86792191742948
  H   -2.50085535754729      5.30693476251151      4.35574767743474
  C   -2.36734242192047      7.44902946125412      4.02608239766038
  H   -3.35212456914976      7.66137076737439      4.46459704399750
  H   -2.21418485747676      8.14247813569863      3.19072617827177
  C   -1.31571042754191      7.69496633025106      5.10824149531683
  H   -1.46840509249906      8.69729123484199      5.53848438869288
  H   -1.44777401817879      6.97438409847586      5.93593027673969
  C   1.06145744621246      7.84036217977487      5.44209836999674
  C   0.78993795998814      7.98399481765180      6.92889370844002
  H   0.26297317101837      7.10325265035247      7.32202883387048
  H   0.15095007688975      8.85674521175775      7.12452329316478
  H   1.72055606241389      8.11140356834597      7.48957662308784
  C   2.40281398863521      8.00203267387650      5.01751454196725
  H   3.13224576644355      8.12744668604035      5.81160648029485
  C   2.87566843564240      8.17386653243048      3.67242311954801
  C   1.70627677610188      4.38083875589045     -0.45313757791995
  C   1.91429185586851      2.99699956387635     -0.64206000170639
  H   1.43664263973160      2.26863075946051      0.00958219851496
  C   2.77042367745435      2.54429887305970     -1.64896615713979
  H   2.93133473005961      1.47631166005086     -1.78156739353189
  C   3.41751807647184      3.46301883747149     -2.48752094870694
  H   4.07457963682155      3.10688350609824     -3.27876211505775
  C   3.21903628430527      4.84133835750475     -2.30570616262082
  H   3.71973997498712      5.55443950350670     -2.95778303586638
  C   2.37760314709662      5.29770934585593     -1.29159380893598
  H   2.21381766256171      6.36113782597757     -1.13528923306885
  C   4.28979165818860      8.53994608178336      3.41947250669197
  C   5.15697580813526      9.03042277775427      4.42045052433138
  H   4.79891436557984      9.19643169708382      5.43395141212743
  C   6.48117440785292      9.34929966972407      4.11033830707421
  H   7.13887402648038      9.73662874111466      4.88576376438860
  C   6.95873158009679      9.18029675620478      2.80275354707618
  H   7.99204644913677      9.42684889818486      2.56591449113119
  C   6.10302980420454      8.69946980919223      1.79864338107759
  H   6.47245959306438      8.57175748892063      0.78289749176450
  C   4.77852123164313      8.38715914560627      2.10243077140467
  H   4.09898770860555      8.02196007914492      1.33568262157222
  C   1.25019709486467      4.59205713332527      4.59604534413738
  H   0.26283073082143      4.84662346839507      4.97813467897157
  C   2.01688544090100      3.57540052998979      5.16868719719032
  H   1.63334568817919      3.01413292465880      6.01764430467624
  C   3.27927295106139      3.30227301657711      4.62607598713075
  H   3.90467990350058      2.51778702059098      5.04757731163122
  C   3.72058289346006      4.05662205683787      3.53276315810207
  H   4.69273906680864      3.88003002163094      3.07889462120738
  C   2.88548452285788      5.05410555833372      3.02419806829014
  H   3.17913586125032      5.66670133633440      2.17544446809995
  H   0.03084745081014      8.73036867674007      1.04490897881213
