70
Coordinates from ORCA-job AWURAL_0_3_tpss_d4_lanl2dz_631gpol_Co3.opt
  Co  9.03267272358624      9.16373470994334      5.45475591041090
  N   10.64447263555500     10.14137143461056      5.95517550198447
  N   8.86278261506777      8.91010490541958      7.35505127550033
  N   7.35171900784280      8.43361264557812      5.19015557121291
  N   7.91276090217491     10.98335050423671      5.11619813026124
  N   9.66493131854848      9.41939725452146      2.43817960030449
  O   7.74070418325328      7.99068136871868      9.14950539689968
  O   6.26843982104869      6.40497523544203      5.06560111045168
  C   11.57146455700817     10.66682634074044      5.14658741732419
  H   11.46683224270626     10.43681935131581      4.09081805922594
  C   12.61119965735468     11.48001897336669      5.64509809951487
  H   13.34170302846946     11.88590284869661      4.94939812776950
  C   12.68167588354157     11.74877331686372      7.00187961840557
  H   13.47416775095236     12.37917020141817      7.40418895168876
  C   11.71741938282780     11.19791958302988      7.88633122038141
  C   10.69873005686483     10.38007593697807      7.30732479175116
  C   11.70048591714255     11.40231619218222      9.29135487892352
  H   12.46128848320322     12.03050470172263      9.75144400986749
  C   10.70923637224296     10.79817513913143     10.04998620934066
  H   10.69001677297528     10.95633361325537     11.12759309071321
  C   9.70851861192355      9.97462961533155      9.48073634947999
  H   8.95506384296397      9.50715700056485     10.10191721094614
  C   9.69170069922389      9.74611966968057      8.09845242659330
  C   8.04238865293298      7.98363624311532      7.94221027297876
  C   7.60951120371939      6.79019105173923      7.05369974396199
  C   7.01656096203975      7.17066650785285      5.68095437010027
  C   6.46337437267177      9.20988225765424      4.45267866216658
  C   5.29976806382934      8.78465222309489      3.80096786413235
  H   5.06061628796333      7.72797502245693      3.78096979440826
  C   4.46911886242262      9.72881127716134      3.15419832359327
  H   3.57771356059736      9.36879556654827      2.64340504284566
  C   4.76493227108987     11.08374639638853      3.14219999926784
  H   4.11532015481940     11.79375151872768      2.63287217681325
  C   5.93529281843890     11.55576082157885      3.79892738474351
  C   6.78080913105010     10.61118061879329      4.45096275312959
  C   6.32715668062130     12.91949109604312      3.85862999670274
  H   5.71257056307136     13.67362193958864      3.36857212204173
  C   7.48143593229143     13.27579777592113      4.53640159976683
  H   7.80243374260021     14.31302653907260      4.59837720783798
  C   8.25513344693848     12.26729029225682      5.15484330713912
  H   9.17406471506234     12.50502094481914      5.68774540121660
  C   9.41237137689858      9.29496671906693      3.58440809755026
  C   6.49107486984550      5.96607052368138      7.79968638559141
  H   5.89707460043805      6.68646727724763      8.37449963715175
  H   5.85489017282116      5.53208091949898      7.02156433166129
  C   6.96284705495320      4.84381185973496      8.70392908054665
  C   7.42668566294963      5.07373020051414     10.01292134742756
  H   7.46079396071115      6.09524829705275     10.38288018354856
  C   7.85119535379357      4.00699946973852     10.81480920151746
  H   8.20381553439110      4.20243932607104     11.82740899543323
  C   7.82187521401739      2.69372261242844     10.32564601380506
  H   8.15262946202703      1.86644831016692     10.95264618626852
  C   7.35874728106329      2.45258484124070      9.02590821961445
  H   7.32508838847042      1.43571220697532      8.63584959701535
  C   6.93189432106363      3.52015820590548      8.22668054710214
  H   6.56519188512323      3.32915536018387      7.21727327905762
  C   8.86987561439198      5.86951224960647      6.82602745989603
  H   9.10938562615520      5.43098548403780      7.80132012209833
  H   8.54051594937970      5.04824415568371      6.17412345879327
  C   10.11637201432179      6.51668914403735      6.26765817300051
  C   10.30534082340841      6.69216837666778      4.88324244860910
  H   9.52066244270318      6.39596568936567      4.18765335478375
  C   11.52146360151408      7.19150244273168      4.38220589124956
  H   11.64008682854879      7.32040358515969      3.30917397388566
  C   12.55080637705716      7.53978350773282      5.25969103035828
  H   13.49396946809054      7.92310960708029      4.87281527163994
  C   12.36374318253833      7.39556649769093      6.64458350462019
  H   13.15848768841865      7.67247165876623      7.33619434824497
  C   11.16205749880983      6.88588082963558      7.13929943019460
  H   11.02246985745472      6.76325200673314      8.21325144753459
