72
Coordinates from ORCA-job AWURAL-OH_0_4_tpss_d4_lanl2dz_631gpol_Co3.opt
  Co  8.31103942419101      9.95770610823052      6.69309147793154
  N   9.02342867236253     11.20145519279365      8.14491891908681
  N   9.21053356729893      8.59351856269638      7.90211244409140
  N   7.71947311831955      8.66145272643402      5.37903268951201
  N   7.80061713185326     11.29591072339228      4.96222048293452
  N   11.05905090251146     10.22203434359448      5.25579889535555
  O   10.43636701104706      6.65256855859899      7.56719652652317
  O   6.22063649752491      6.92200568938391      5.43233669977662
  C   8.75668396343026     12.49835030871420      8.30878056869512
  H   7.99377290350743     12.91616379156081      7.65765822829003
  C   9.40950880261601     13.28357601799062      9.28200651390897
  H   9.16066231805821     14.33802937859779      9.37438686508997
  C   10.36325507035345     12.69175299770271     10.09424826519989
  H   10.89762771697761     13.27694100221815     10.84166797593651
  C   10.64315346217987     11.30653239948222      9.96728568835276
  C   9.91947459572760     10.58145466106616      8.96928989682410
  C   11.58199794117137     10.60558397140871     10.77038972130404
  H   12.14755191835891     11.14647519297900     11.52719262590065
  C   11.76167827948330      9.24219996578450     10.57710583324896
  H   12.48317120884207      8.70596607788053     11.19178533771881
  C   11.03350607700607      8.51510606069676      9.61199984816317
  H   11.18783644192422      7.44988366387811      9.49380012405749
  C   10.08666694880340      9.16300573961619      8.79838758727300
  C   9.39175820711379      7.30490823036375      7.43545495235660
  C   8.12910269742643      6.63940010402021      6.84861117826097
  C   7.27683263252366      7.41239088924146      5.83652393386274
  C   7.42506328829212      9.09018625096039      4.11771799790780
  C   7.14208306637695      8.24615758286826      3.02443938574187
  H   7.11011264105668      7.17288197125758      3.17457653728980
  C   6.92349907967769      8.78766020423215      1.74671762039479
  H   6.71730064886507      8.10933837313526      0.92117603408674
  C   6.97859114090831     10.15817957184984      1.51791950732766
  H   6.80614048184039     10.56557819763100      0.52287774057768
  C   7.27768689023582     11.04747946327097      2.58833400451071
  C   7.50031934376932     10.51079130891605      3.89321856324527
  C   7.37930536457305     12.45359468358966      2.43723225961656
  H   7.21482633651305     12.90069442177023      1.45767285805112
  C   7.69888100365139     13.23623559994125      3.53380688872275
  H   7.79798982386752     14.31598769122493      3.45073075689675
  C   7.91246605962467     12.61014799507162      4.78072554928670
  H   8.20149322340157     13.19643354950806      5.64850157881523
  C   10.02755207729792     10.12663140418629      5.81794414970589
  O   6.64925064729651     10.10269295719509      7.39333910889633
  C   7.17806765000452      6.34404947969478      8.07217318690500
  H   6.75259652356017      7.30608485352022      8.38715167090177
  H   6.35712151746023      5.72636247743466      7.68653253300062
  C   7.87698614941701      5.68837270810557      9.24016132102299
  C   8.31505541020074      6.47172428770089     10.32237510346606
  H   8.10503335013921      7.54078895072376     10.32078283094357
  C   9.01968551315359      5.89894647545781     11.38745853661653
  H   9.35354437366084      6.52503147060874     12.21428266913823
  C   9.28995653996456      4.52444921583224     11.38988156400574
  H   9.83756257807341      4.07427875092102     12.21690876009735
  C   8.84182726156390      3.72924885342656     10.32634538423567
  H   9.03781161934142      2.65765538009700     10.32638357365425
  C   8.13971969091615      4.30724465982696      9.26238569165656
  H   7.78946268898484      3.68126780995064      8.44224732066130
  C   8.54261188343536      5.32995880350548      6.10618263625566
  H   9.34731847100358      4.86694068116848      6.68997600652582
  H   7.67778314956483      4.65544725433784      6.09352573003531
  C   8.98660838295129      5.58013048039264      4.67351066444515
  C   8.38576446659488      4.86193750045355      3.62378962883432
  H   7.63038111792894      4.11183793207848      3.85896870205406
  C   8.73201727530073      5.10671587120309      2.28787161165109
  H   8.25703424208834      4.53341936610419      1.49198346227667
  C   9.67447254528600      6.09735819036908      1.97882426848049
  H   9.93634474159848      6.30129105592368      0.94113068543780
  C   10.27661875655853      6.82344922495325      3.01541874288614
  H   11.00503389300471      7.60204490908324      2.79474575784343
  C   9.94740520206630      6.55906913247874      4.35045917552763
  H   10.44049428421327      7.12555715221075      5.13535859836176
  H   6.76409209410132     10.34818348749942      8.33613036234795
