70
Coordinates from ORCA-job AWURAL_0_1_tpss_d4_lanl2dz_631gpol_Co3.opt
  Co  8.69667032067472      9.88637747250479      6.38059537710470
  N   9.69669479911829     11.17242076921252      7.43589519693833
  N   9.17435309534146      8.67023302240683      7.73308645036910
  N   7.77350691501205      8.62019218042944      5.33100636290098
  N   7.71831700945979     11.17553043966297      5.29565542254295
  N   11.07842235328736      9.85661816385721      4.56450372284768
  O   10.23133990439493      6.63837159506753      8.02541386004877
  O   6.59510061476710      6.67661928154690      5.01127406002423
  C   10.11918991253802     12.39287794333080      7.07820780247912
  H   9.87031782329956     12.71750688669625      6.07350716506441
  C   10.87569793284476     13.20742504045162      7.94400174324089
  H   11.17245734119984     14.19840701695504      7.60954657957502
  C   11.24069083051157     12.72763255917604      9.19219038959431
  H   11.81910231023252     13.34355738620230      9.87933735343833
  C   10.91458396295328     11.39567350700440      9.55345108269237
  C   10.15457235731358     10.63513658271020      8.61310990817286
  C   11.34044958378757     10.75209918884342     10.74483368894063
  H   11.90314260766590     11.31471600332507     11.48733226121846
  C   11.06621321893941      9.40343728736951     10.91850342630537
  H   11.40922727270143      8.89844048533980     11.82017327817503
  C   10.38710004580057      8.63557007186458      9.94362131409588
  H   10.24766799127514      7.57294301580127     10.09597738837685
  C   9.90886666151717      9.24789688046596      8.77850506979389
  C   9.31908377704952      7.29336801924835      7.51322498686468
  C   8.19852971262777      6.58399484844611      6.75819792713909
  C   7.46992839564861      7.30740268325634      5.62505394746150
  C   7.30718894655959      9.17085030627759      4.13038429526449
  C   6.91605702588430      8.51140237324600      2.96070235856815
  H   6.96014194773108      7.43120513166020      2.90726138546384
  C   6.45043814440969      9.26139892194067      1.85515512004148
  H   6.16256495007979      8.72162502423587      0.95446493486490
  C   6.31769279969465     10.64273500413314      1.89242665114031
  H   5.90904806032010     11.19388095323469      1.04749598366656
  C   6.70506831950176     11.34281077985018      3.06450507441645
  C   7.25525503143148     10.58702142010129      4.14356167389583
  C   6.54937028605236     12.73651686990258      3.27242066964095
  H   6.12986877019294     13.35457764854563      2.47977349799977
  C   6.89475855129013     13.29146138925061      4.49564035624512
  H   6.73325217127835     14.34620751671074      4.70420243913502
  C   7.48706738076944     12.48175889270856      5.48664566160782
  H   7.77769214817825     12.89457531318037      6.44738286889708
  C   10.13576227521955      9.83181151944806      5.27241490583392
  C   7.06408097567663      6.29747559037457      7.82765887942199
  H   6.59616044940293      7.26119033770918      8.07285338283393
  H   6.31788181245230      5.68936605044803      7.30074808506098
  C   7.53143670771809      5.63363684361707      9.09935219374030
  C   7.77156061240828      6.41308322006953     10.24426806944661
  H   7.59859362608354      7.48878394627040     10.19655062338538
  C   8.23358531493321      5.83029026990378     11.43003451417674
  H   8.41239627099265      6.45289975117355     12.30638188363005
  C   8.46119923178424      4.44911832030610     11.48762657690981
  H   8.82192459894319      3.99078044542173     12.40744602549255
  C   8.21260872509088      3.65918458542571     10.35703953157007
  H   8.37671443857231      2.58295112624477     10.39707515726887
  C   7.74738581532502      4.24661279474905      9.17477745478988
  H   7.54818998232324      3.62343313635087      8.30380604397549
  C   8.74907458039018      5.25526919869095      6.14869170602694
  H   9.43778811126099      4.82160537722001      6.88227264190837
  H   7.90426398425596      4.57251684108763      6.00312769623559
  C   9.43485171117683      5.48904299760841      4.81470279274875
  C   8.83481777625644      5.02405149437412      3.63079166651817
  H   7.90461628730734      4.46052905623954      3.69642490988188
  C   9.40458680818770      5.29478530756073      2.38105884587248
  H   8.92659955561784      4.92146717619314      1.47522905071468
  C   10.57808176984113      6.05614149758425      2.29624926865625
  H   11.01395362639997      6.28553430389494      1.32444813201580
  C   11.18126230107589      6.52989893645213      3.46814181348367
  H   12.07755736089683      7.14455892084095      3.41555611481665
  C   10.62091077319247      6.23842113284114      4.71764333713874
  H   11.10306323387612      6.60948394574401      5.61909996019056
