71
Coordinates from ORCA-job AWURAL-oxo_0_3_tpss_d4_lanl2dz_631gpol_Co3.opt
  Co  8.41830015509991      9.86713976052212      6.55288859727183
  N   9.56210819710284     11.08720325473204      7.62938059723820
  N   9.45605602422841      8.49203104852700      7.39911447744921
  N   7.69526392483129      8.74010781804929      5.17232454085221
  N   7.30998251820764     11.25439648622360      5.64516391082624
  N   10.70176587058781     10.39631714995325      4.47183505651229
  O   10.29104834212313      6.36930964122195      7.50327344920420
  O   7.10087718905976      6.74277029705991      4.23551375206584
  C   9.69921938830896     12.40787148629358      7.52122030760480
  H   9.19040379653787     12.88791542917581      6.69322886588718
  C   10.49777501068806     13.14286658833290      8.42177920155885
  H   10.57033805107940     14.22102834311753      8.30386947350147
  C   11.17361547264160     12.47666588590427      9.42958996917068
  H   11.78417464360832     13.02391604702158     10.14637291119837
  C   11.10999128255004     11.06208178041947      9.51098055533999
  C   10.29524329762599     10.38896557618605      8.54490976064122
  C   11.81474097158764     10.27766457512252     10.45749435664328
  H   12.42789774481727     10.76754150291379     11.21145023172199
  C   11.72246481848690      8.89502269264931     10.38606978761067
  H   12.26176358611452      8.28380747376088     11.10797761828968
  C   10.97701532174885      8.23106339645764      9.38772228627090
  H   10.97057740722831      7.15115260269215      9.34059071597515
  C   10.25175385666096      8.96991995992581      8.43783092835944
  C   9.42502057669359      7.14862005439553      7.08709729678253
  C   8.20435860964239      6.59260146289717      6.35210287651535
  C   7.66229098146729      7.36042521164742      5.15047813300721
  C   7.22546752118695      9.48458312550668      4.08369773777883
  C   6.95454443311325      9.05331687076509      2.77883418717839
  H   7.15152381224628      8.02751759865841      2.49859266818707
  C   6.39030661361051      9.95089484889945      1.84199153089586
  H   6.19827477902990      9.58215830294039      0.83587069255469
  C   6.04859454385339     11.25576783371931      2.16602556448672
  H   5.57948026605035     11.91460360701505      1.43783624958619
  C   6.31284639598534     11.73299841508212      3.47556012307087
  C   6.96145632197306     10.84940916160291      4.39152914703358
  C   5.96346478205932     13.01871920304777      3.96311445212125
  H   5.47023034042250     13.72581786027017      3.29768398432918
  C   6.21625079928553     13.35131122033972      5.28478555522014
  H   5.91139881747432     14.31011523854819      5.69656435983042
  C   6.89503016298938     12.43110109703202      6.11263578837818
  H   7.10156754816561     12.63902568112004      7.15847291668406
  C   9.84221654038524     10.17983366502304      5.24728951498415
  O   7.20096556152462      9.84997157180996      7.73981489849977
  C   7.00554327582923      6.60296387495524      7.39514512996263
  H   6.61509346070991      7.62907809035584      7.44499201234679
  H   6.22274381516658      5.95857591315938      6.97226544909627
  C   7.40515415855343      6.16918867225428      8.78662179858153
  C   7.71154626784860      7.14949546282874      9.74672626029724
  H   7.59697390846282      8.20043876337188      9.47957428615439
  C   8.15729441530047      6.78711521646052     11.02295311345926
  H   8.39509102787732      7.56060875714023     11.75243090706083
  C   8.29323286267698      5.43385375034218     11.35985882103083
  H   8.63993204165719      5.14778477374243     12.35221203426412
  C   7.96820629153497      4.44859356464305     10.41768798865354
  H   8.05870621720597      3.39440917625920     10.67691712019687
  C   7.52557115635971      4.81416762215775      9.14087486702438
  H   7.26886984426591      4.04273411085996      8.41534397174788
  C   8.52695856669659      5.15796727038295      5.89478255378964
  H   8.87680507855012      4.60015002520933      6.77196891356159
  H   7.59236722191393      4.69846460991954      5.54818276357454
  C   9.56633999670292      5.04224129188150      4.78721437827587
  C   9.79621399296495      3.77446407507811      4.22350762004951
  H   9.22696674120166      2.91903574099576      4.59067738664271
  C   10.73459104264059      3.59348788572803      3.20221742049012
  H   10.89216684872972      2.60027618868613      2.78223331621556
  C   11.46583270010682      4.68736901361979      2.71885987535142
  H   12.19658834847152      4.55171277768443      1.92235456745151
  C   11.24663104818426      5.95513207880999      3.26938448340889
  H   11.80401054400585      6.81822873888626      2.90778890304973
  C   10.30754078312619      6.12885882254287      4.29429011184553
  H   10.17076206517010      7.13195290546042      4.69577491809757
