72
Coordinates from ORCA-job AWURAL-OH_0_2_tpss_d4_lanl2dz_631gpol_Co3.opt
  Co  8.51226540924802      9.90050096940417      6.53558257159959
  N   9.57741816870289     11.19673641759066      7.58821033785139
  N   9.22920471811592      8.61481819098044      7.77882702880016
  N   7.85837417727586      8.61255870060536      5.34276348304420
  N   7.61963309832124     11.15355034930191      5.30344096593610
  N   11.06588089665123      9.94013533563692      4.78437424983324
  O   10.25102902235295      6.56298721956689      7.97370259761533
  O   6.54696661348606      6.76874165040536      5.04714504763739
  C   9.81275355535126     12.47979354262682      7.32145074139393
  H   9.42964718081976     12.86376476695498      6.38318960644438
  C   10.55758924906221     13.29803206108462      8.19725331699188
  H   10.70805976948312     14.34392536072868      7.94165002285860
  C   11.08735902249999     12.75152742829951      9.35257797575039
  H   11.66000592558010     13.36421128462363     10.04756619749874
  C   10.92522006245352     11.36734127712469      9.61867385978807
  C   10.16093381837241     10.60722858505979      8.67613622605089
  C   11.50092692363961     10.68861803833118     10.72147205863347
  H   12.07825369337188     11.24876677848541     11.45459227917649
  C   11.34348981153673      9.31389108300260     10.82224274791534
  H   11.79747722703841      8.78215350630359     11.65727184518995
  C   10.63586150079926      8.55725852712631      9.86166280086019
  H   10.57634196871402      7.48103499051124      9.95630695648759
  C   10.02094567670621      9.19526699366501      8.77480170024365
  C   9.34008713896186      7.26295953176042      7.51098828801363
  C   8.17110795186175      6.58033698615055      6.78751546406190
  C   7.46267568192732      7.32203421955901      5.66595221800947
  C   7.55220551309755      9.13988946503521      4.09517227973524
  C   7.39407628357387      8.44544896894261      2.89238934803381
  H   7.53852086370719      7.37115972392203      2.85692006335277
  C   7.02941880611696      9.16180237657980      1.73021025709697
  H   6.91996290430782      8.61084162649312      0.79796948844585
  C   6.77573565387454     10.52914520559787      1.74715128580038
  H   6.45015436365083     11.04697434577188      0.84680897226921
  C   6.92571188375333     11.25995220951889      2.95815120444194
  C   7.38728072196434     10.54946302363042      4.10102961971934
  C   6.61521879897867     12.63193997035168      3.14725111167287
  H   6.26002304762840     13.22561318154711      2.30618804176942
  C   6.72464212264820     13.19034706450322      4.41209514102590
  H   6.43769618451432     14.22220336056383      4.59892097004427
  C   7.23225734498470     12.41585566002112      5.48060821995970
  H   7.31910203251391     12.81309404551156      6.48732433561968
  C   10.09760774521073      9.90257546433947      5.45399337164366
  O   7.06377045413328     10.17425209062055      7.64695189774396
  C   7.06100100284813      6.32396178216425      7.88291964190041
  H   6.61297258530801      7.29791264220204      8.12502207491285
  H   6.28670737801249      5.71878061097289      7.39386519989397
  C   7.56470791988508      5.67034210305245      9.14684947522017
  C   7.87701936431197      6.45937784060163     10.26699284304343
  H   7.72533318891946      7.53811523101886     10.21655220347976
  C   8.38608523915245      5.88225339663958     11.43573950892768
  H   8.62230736340740      6.51262460837191     12.29241528740491
  C   8.58637489875885      4.49735661737082     11.50202258416187
  H   8.98175676175519      4.04324887761896     12.40962806063747
  C   8.26587764112454      3.69791472538567     10.39655069029995
  H   8.41004977562464      2.61921066588153     10.44338225349088
  C   7.75659820702528      4.28034738998554      9.23032751569736
  H   7.50438545801866      3.65163959457922      8.37705783082952
  C   8.67537524450051      5.25023698707583      6.14236344389249
  H   9.41114206140715      4.81760198767067      6.83093444669899
  H   7.82487843595221      4.56468952336999      6.05070589925319
  C   9.26594080973567      5.49148463635911      4.76217844274241
  C   8.76675137831348      4.79061154680137      3.65091523858739
  H   7.99604060160704      4.03461942730038      3.80147321020010
  C   9.22874873817500      5.06694257554817      2.35685999611899
  H   8.83039975970103      4.50791569744065      1.51025706713411
  C   10.18438689812887      6.07265344523217      2.15178887867139
  H   10.53147784702108      6.30217979364274      1.14482257244051
  C   10.68407316115088      6.78411741832019      3.25031081859608
  H   11.40856347724533      7.58448454325340      3.11501590372994
  C   10.23795914250722      6.48577849221659      4.54412902367160
  H   10.64535262442449      7.04995947349009      5.37922849698962
  H   7.28120004898374      9.64879678859141      8.44836519531049
