41
Coordinates from ORCA-job AYICIX-OH_0_4_tpss_d4_lanl2dz_631gpol_Fe2.opt
  Fe  5.05877386403495      0.66676989974569     19.85001785780454
  S   6.50713994722136      2.31923326463616     19.17840416284625
  S   7.38777716164278     -0.25646840580903     20.96630544866176
  S   4.82986896202456      1.51855407722393     22.00557157164990
  P   3.57143673285146     -0.93429578044953     20.65291796585812
  O   3.50888469092981      1.18488411148762     18.87504866475344
  O   5.88695411603244     -1.03186712128563     17.41891752711024
  C   5.66169520439382     -0.46487410160727     18.40083031649906
  C   7.96597874764900      1.38120601488049     18.77644139546369
  C   8.77920630715502      1.75856721847906     17.68932696459516
  H   8.48390312684204      2.61603598796869     17.08735591988281
  C   9.93165513895162      1.03452515244277     17.36641353035098
  H   10.53463808415697      1.34111919548209     16.51275464079844
  C   10.30522035508591     -0.08500227926822     18.12259484767209
  H   11.19854934707022     -0.65185271655743     17.86660141375098
  C   9.52464119593261     -0.46559906657581     19.22079039883781
  H   9.80640163822210     -1.32204527851460     19.83115554943209
  C   8.37313414037809      0.26271831224262     19.55297251832231
  C   6.49206619950389      1.88956443252205     22.50641616526007
  C   6.70950341685757      2.95231856384055     23.40923419620956
  H   5.85335531012186      3.52347359953941     23.76301229770966
  C   8.00075387748058      3.29249203875782     23.81664279708276
  H   8.14332887881809      4.12836797400141     24.50019122962693
  C   9.10973369164637      2.57697345293570     23.34018543032160
  H   10.11727704928538      2.84721684166624     23.65118863136633
  C   8.91261308222425      1.50658868996384     22.46441267406362
  H   9.75973670139482      0.93695872086384     22.08611044620113
  C   7.61653176927516      1.16565022182351     22.05065318941172
  C   4.15943410676069     -2.04769722465793     21.98920606894272
  H   4.45646207474057     -1.43207297222036     22.84683795056285
  H   5.03904218772878     -2.60484725032163     21.64249103556230
  H   3.37732946502411     -2.75686187508258     22.29383302555544
  C   2.03701552636607     -0.14594407436701     21.27187303918776
  H   1.68888750673387      0.54253312747380     20.49251391500169
  H   2.25057295883204      0.42849577584776     22.18116376050099
  H   1.26528843431062     -0.89786062610090     21.48696029094921
  C   2.96016840773713     -2.06104523071000     19.33024971111094
  H   2.58494586941866     -1.43717973197285     18.51003614906656
  H   2.15333368629857     -2.70987301106944     19.69822385577800
  H   3.77830194535376     -2.68659429298518     18.95232059005579
  H   3.78630909351185      1.65343436573029     18.06021285618108
