40
Coordinates from ORCA-job AYICIX-oxo_0_3_tpss_d4_lanl2dz_631gpol_Fe2.opt
  Fe  5.15537752289241      0.29860093155631     19.02919306710837
  S   6.41358027017640      1.14493840540993     17.19715605148140
  S   7.22022719459044     -0.43224189706941     20.00288343849249
  S   5.61247970270338      2.31878395468552     20.16321094328386
  P   3.92452256680636     -0.51453344683572     20.80909778247095
  O   3.69209685349370      0.86026448939366     18.46407888570801
  O   5.05137823895065     -2.19888640650218     17.38483509106457
  C   5.10575458918052     -1.24317710289873     18.03415654027715
  C   8.05499285651466      1.13775184181836     17.84539480493797
  C   9.07255160362191      1.80526582835676     17.11997557903850
  H   8.80348354246714      2.32440241654645     16.20203051427476
  C   10.39082496497478      1.81884069748975     17.57122331420056
  H   11.14546536596185      2.34993608277407     16.99290012757028
  C   10.75117785455632      1.16337841655676     18.76065729340221
  H   11.78065718905896      1.17704606444602     19.11277706108937
  C   9.77012904903970      0.49038554013869     19.48865793628202
  H   10.02418627412102     -0.02164479124528     20.41553865914242
  C   8.44010946234244      0.49160688570971     19.03990806090828
  C   6.48971427942209      1.72513784665229     21.57152207226203
  C   6.53533248958275      2.46374567229736     22.77776786905947
  H   5.99870027065575      3.40911222057663     22.83586270711434
  C   7.24671939468911      1.98947258179849     23.88341583264277
  H   7.25517276660450      2.57613564885616     24.80111703721944
  C   7.93181981282015      0.76452121768485     23.83361636596948
  H   8.47200941276940      0.39545196383483     24.70302139312830
  C   7.90808232440447      0.01828293768690     22.64987562032400
  H   8.42693906536386     -0.93697051799484     22.58167004855701
  C   7.20029177154217      0.50223521471700     21.54085204191369
  C   4.65123048836678     -1.63069649061851     22.08328631107195
  H   5.37194609429762     -1.07964647261159     22.69723462259090
  H   5.17466922290466     -2.46467272970531     21.59814068465453
  H   3.85799641968150     -2.03261496655406     22.72932266236834
  C   3.08589974674953      0.79052066667755     21.78329979521229
  H   2.62359058039580      1.50086522127218     21.08875578377669
  H   3.82295154535998      1.33199966719753     22.38713269124287
  H   2.32259638492633      0.34550412371634     22.43719201859690
  C   2.53686470173912     -1.50989506161574     20.12401811810833
  H   2.02869174688434     -0.91127613705280     19.35889820461282
  H   1.82400688456121     -1.79135946042025     20.91092096367148
  H   2.92617949482570     -2.42027105672574     19.65070200516751
