45
Coordinates from ORCA-job AYICIX-CH3OH_0_3_tpss_d4_lanl2dz_631gpol_Fe2.opt
  Fe  5.47361450212476     -0.15634225054552     18.97741104965751
  S   6.78961501914705      0.08195760301176     17.14580123841201
  S   7.59012467064796     -0.67455281476363     20.19644476874984
  S   5.92939634288241      2.01508918611666     19.78919059835912
  P   4.21693104481160     -0.77594934051823     20.87557047763049
  O   3.49218391042844      1.00804473788962     18.30687971875571
  O   4.43240197558445     -2.66324711899266     17.81184715921429
  C   4.85805804188158     -1.67295870361704     18.26729625019736
  C   8.30371612233408      0.67881335182950     17.86252522664264
  C   9.19254437360685      1.44958576171350     17.08529631796254
  H   8.92153373711606      1.68948585451779     16.05876581688204
  C   10.38848856761606      1.92360230606110     17.62913954211449
  H   11.05225000908471      2.53264859653115     17.01695078628988
  C   10.73282693994249      1.62729513610130     18.95655930308492
  H   11.66442668055356      1.99776275830172     19.38078753762546
  C   9.87633417784463      0.84168773412385     19.73337431302800
  H   10.12935126094715      0.59969222282205     20.76433248508519
  C   8.67269823122799      0.37420963749820     19.19056634315324
  C   6.63874673693251      1.65834668428759     21.36761286463858
  C   6.53508138664725      2.55475782247385     22.45188142132329
  H   6.02107818648026      3.50223223376308     22.30053940744281
  C   7.03694649374078      2.21838182509170     23.71242333819798
  H   6.92346946170856      2.91997648493506     24.53810314957333
  C   7.66836104395787      0.98264002340664     23.92704079735613
  H   8.04746576952956      0.71918558327474     24.91280658448617
  C   7.83365854403690      0.10111419845680     22.85186756232007
  H   8.35753722229033     -0.84470776571647     22.98359845351778
  C   7.33784205128693      0.44048080343557     21.58370389019284
  C   4.82028744868689     -2.32459609469094     21.67784416640917
  H   5.79165651100357     -2.13501934428367     22.15202815809590
  H   4.95290709520390     -3.10456591861969     20.91816498395782
  H   4.11513638585297     -2.67858578973940     22.44286605418068
  C   3.93614998762194      0.33925482980594     22.31830354671843
  H   3.66820163319676      1.34191790616704     21.96484630722514
  H   4.84533882170876      0.42060795168213     22.92276830474518
  H   3.12269853814185     -0.06219931001471     22.93911552943342
  C   2.48605499773656     -1.20956486305696     20.39776939692379
  H   2.02589466102721     -0.34433550176419     19.90671842800591
  H   1.89276275630860     -1.50071893440997     21.27557790988281
  H   2.49750918778112     -2.03685359384635     19.67829588375731
  C   3.47043146558517      1.37249512147126     16.90676677831412
  H   4.44108160912190      1.77965426021244     16.59587761138736
  H   2.66439245656525      2.09367943651533     16.71360682660698
  H   3.27520099363500      0.44702050337917     16.35795169074443
  H   3.76305294642939      1.79958678970281     18.83151202171652
