45
Coordinates from ORCA-job AYICIX-CH3OH_0_5_tpss_d4_lanl2dz_631gpol_Fe2.opt
  Fe  5.52261120756758      0.05554130408599     18.85416395590950
  S   6.86553405266918      0.27704144441670     16.87735078200625
  S   7.66003614944828     -0.69070253443207     19.95159840576255
  S   6.05045055687760      2.15289938808604     19.95487185410326
  P   4.09254057693108     -0.62521926198288     20.99069343818034
  O   3.57083206432361      1.07423536567582     18.40938368753880
  O   5.08463300534103     -2.83860721628230     17.69567654574731
  C   5.06143097551663     -1.75278862353680     18.09958261565930
  C   8.37824755717026      0.77860974364310     17.66916843724351
  C   9.28640623504768      1.58885815576139     16.95311960868026
  H   9.03389331684812      1.87596091099311     15.93426510048756
  C   10.47077158656966      2.03883279984293     17.53846462501285
  H   11.14399014647295      2.67495016944447     16.96527669073523
  C   10.79290621826936      1.68038206655501     18.85585545339309
  H   11.71479225355579      2.03136189609493     19.31605348153023
  C   9.92313090634735      0.85801274175819     19.57557140932514
  H   10.15719011988434      0.56719711743772     20.59826252244536
  C   8.72697836387966      0.41697559566393     18.99221312804905
  C   6.73685085829797      1.48607021099024     21.44641802620853
  C   6.60088094925576      2.16896432504288     22.67622343635978
  H   6.05914292109206      3.11327737555541     22.68600578056078
  C   7.13882052760032      1.65433103058596     23.86017205913616
  H   7.00717836614346      2.20491505773523     24.79112180696481
  C   7.84737422925265      0.44352417849376     23.85630616445831
  H   8.26993921898658      0.04453581393934     24.77666594024917
  C   8.01532067472209     -0.24472498125705     22.64893234431939
  H   8.56742018352100     -1.18285336642703     22.61737060695263
  C   7.46617766085891      0.26444271357975     21.46169674536720
  C   4.71658232301145     -1.66455583998430     22.39110518285137
  H   5.45471631416372     -1.09723719653025     22.97041461684083
  H   5.21095337180885     -2.56158339004947     21.99538144633035
  H   3.89591257117272     -1.97350434669505     23.05462362840646
  C   3.25884553198583      0.75986261052894     21.88695360460737
  H   2.69605822812572      1.37063961697305     21.17039759469430
  H   4.01895892905187      1.39394197917860     22.35777459883416
  H   2.56864492697281      0.38127959108129     22.65471261334208
  C   2.63528851247571     -1.61451393236901     20.41066315187800
  H   2.13547241865650     -1.06532055423602     19.60237605767130
  H   1.91657119216400     -1.80015993033489     21.22127948668504
  H   2.97217955096875     -2.57954383407537     20.00970922522024
  C   3.37675198649026      1.39941162488889     17.00690309092088
  H   4.27249011063042      1.87976763627431     16.59428242544800
  H   2.49507469487219      2.04260058542368     16.89286070125443
  H   3.20996032148840      0.44416633786374     16.50269611992617
  H   3.80549813350917      1.89573562059801     18.90371180270045
