72
Coordinates from ORCA-job CABXIO-CH3OH_1_3_tpss_d4_lanl2dz_631gpol_Fe2.opt
  Fe  0.15772745702789      0.29414393560026     -0.03905844175229
  P   -0.32940427689884      0.91058220722975      2.09817440950877
  P   -1.90863077174115      1.09021117158145     -0.53729928948704
  O   4.34301106068036      7.68054512869535     -1.99157309318169
  C   1.01483260543356      1.87802211274662     -0.53175010212997
  C   1.65015612343924      2.92306758340688     -0.81459827788000
  C   2.34908183073761      4.10829939459032     -1.12302810928745
  C   1.68287419899098      5.36819826726448     -1.17223928436871
  C   2.37411102221621      6.53123704632975     -1.46413430628707
  C   3.76492090731973      6.48492271179121     -1.72003309526833
  C   4.44938315806497      5.25067430538695     -1.68085682173935
  C   3.74489650253162      4.08664825174513     -1.38711786589793
  C   5.75829469245393      7.70923520447851     -2.25162041651827
  C   0.85956119996370      2.01295013120525      2.97601515161956
  C   -0.73020218356715     -0.35853467194771      3.38097878094354
  C   -1.86827128748205      1.96252807967969      2.07170020210011
  C   -2.84745749050468      1.37856543655707      1.04349559831002
  C   -1.91631383569092      2.75522206650905     -1.32891016467935
  C   -3.14754558302124      0.16042377739536     -1.54170522191347
  H   0.61352227938548      5.40573909583714     -0.97545199970542
  H   1.87399140284140      7.49609969243283     -1.50230678021213
  H   5.51686424753557      5.19830033834584     -1.87683418233195
  H   4.26957086792817      3.13335578973994     -1.35706619366453
  H   6.32049340684987      7.34221735073114     -1.38235816659817
  H   6.00302266455593      7.11160711430903     -3.14012090065670
  H   5.99315230843070      8.75996437116675     -2.43216403210711
  H   1.68060381994309      1.43410620668328      3.41254031703482
  H   1.27346030820934      2.73562278089990      2.26311479000989
  H   0.34751163303665      2.54670686821524      3.78845851602597
  H   -1.01048491555790      0.11739719432606      4.33077956004700
  H   -1.55741854806055     -0.98113306004017      3.02023158639905
  H   0.14052106048495     -1.00410150402213      3.55312703324825
  H   -2.30927031532085      2.02314157884561      3.07663875718198
  H   -1.55962055990899      2.97746869301189      1.78029408287146
  H   -3.71061777856281      2.03756455836458      0.87347355263811
  H   -3.21981547434962      0.39856962343714      1.37506651054092
  H   -1.34280195731427      3.44989716461767     -0.70530280311878
  H   -1.42063626781381      2.71023274361434     -2.30544066335802
  H   -2.94392720565704      3.12228231436630     -1.45557493613702
  H   -4.11512412262958      0.68080315046840     -1.52775162340924
  H   -2.82109469643384      0.07403620241174     -2.58573349456346
  H   -3.26773657108847     -0.84118191608913     -1.11132032065999
  P   0.35819391068978     -0.84058691128548     -1.99815250943623
  P   2.19473699171431     -0.50173567605371      0.40202734383111
  O   -2.10403797621970     -1.93020391086599      0.79108026863741
  C   -0.69224440904549     -2.26672135886538     -2.52696293093835
  C   0.27251245066691      0.29764125680539     -3.44759876588420
  C   2.07737632461795     -1.56280909178481     -2.14351279000937
  C   3.03020964222909     -0.76483128110504     -1.23952071715231
  C   2.34670905460973     -2.16361699800397      1.20882238375264
  C   3.45682928209780      0.48171703950522      1.31636338803222
  H   -1.74546729035577     -1.97645206112965     -2.59331496437840
  H   -0.61007359055723     -3.07745803641403     -1.79314750168577
  H   -0.36196951949691     -2.63991093978884     -3.50637265219415
  H   0.53567912284576     -0.22280336530743     -4.37874497864595
  H   0.96236241200043      1.13143949633702     -3.27268799512741
  H   -0.73865835496099      0.71028854138864     -3.55043380660729
  H   2.40618286337113     -1.56515356288724     -3.19190659584387
  H   2.02783324717163     -2.61127378513821     -1.81496691014030
  H   3.99821647832768     -1.27089650711217     -1.11616526627965
  H   3.21185280517594      0.23628046035646     -1.65586053082891
  H   1.73969700200849     -2.90178731925693      0.66994035055746
  H   1.96948559276905     -2.11037043833205      2.23820906503196
  H   3.39027281486862     -2.50757506661394      1.23555175683599
  H   4.45965752136369      0.08310105270892      1.11067031039831
  H   3.28561396833836      0.43333848352070      2.39735934700725
  H   3.40274780738467      1.52646957443239      0.99024503369872
  C   -1.67609037885996     -3.25083997510336      1.15348691228170
  H   -0.94512381797206     -3.23437728157293      1.97653347077854
  H   -2.57267897080329     -3.78265405451070      1.48508609941889
  H   -1.24145985323094     -3.79359479366717      0.29909620883280
  H   -1.30358604720597     -1.40509198217464      0.52319871449122
