72
Coordinates from ORCA-job CABXIO-CH3OH_1_5_tpss_d4_lanl2dz_631gpol_Fe2.opt
  Fe  0.00209584255910      0.03492524387227     -0.04901416529777
  P   -0.49603207879709      1.11836529616211      2.18096529374641
  P   -2.21909980499181      1.09496339372792     -0.68333677236581
  O   4.29584304923909      7.60218076099815     -1.24760434014136
  C   1.00286184760473      1.64284531585438     -0.51870286118158
  C   1.61860306186676      2.71646076440701     -0.69144408383148
  C   2.31122778251078      3.94085242099606     -0.86109721862920
  C   2.02695912203037      5.05511374877360     -0.02432085476868
  C   2.70409163457606      6.25461372192766     -0.18067559863427
  C   3.69289168994357      6.38626899113272     -1.18057824001313
  C   3.99001326788571      5.29457404144426     -2.02156084170482
  C   3.30403543568270      4.09159897302124     -1.85860669562280
  C   5.31271052359694      7.79471150366029     -2.24521325479387
  C   0.82197701487789      2.06239928137487      3.06782002107386
  C   -1.41288342764789      0.32583182107756      3.59011787137653
  C   -1.66876905329030      2.48960684590417      1.70190896946155
  C   -2.84228413539215      1.94492501987603      0.86020059095912
  C   -2.03174196859719      2.52276989163306     -1.84294486473253
  C   -3.77821503360140      0.30531887164609     -1.31484057550060
  H   1.26540152598599      4.95939627213820      0.74734578986716
  H   2.49238152378083      7.11133423797306      0.45475860939334
  H   4.74651289163347      5.37695612595312     -2.79717594284452
  H   3.53424095888295      3.25006527190809     -2.50915968183646
  H   6.15189022060785      7.10340633835126     -2.08610649301813
  H   4.90062142336530      7.65971263619087     -3.25481746887410
  H   5.64940813309645      8.82524032152218     -2.11527152617246
  H   1.47882872401445      1.37157652771542      3.61103554825614
  H   1.42682098440416      2.60681053032877      2.33272969729536
  H   0.39266404024903      2.77388816256180      3.78657743763471
  H   -1.73455452768357      1.06574094728925      4.33632853115367
  H   -2.29462610927669     -0.20460490095509      3.20867874579913
  H   -0.76615285967042     -0.40978430553990      4.08666644500468
  H   -2.04005155683353      3.00731788084233      2.59886936557722
  H   -1.08422915326920      3.21485888386689      1.11636861083010
  H   -3.53941922281772      2.75209199973967      0.59058317422341
  H   -3.41508312697057      1.20561937405093      1.44051587418406
  H   -1.18722020158174      3.14169807373134     -1.51878231643884
  H   -1.80533380046433      2.15855629600332     -2.85277780399115
  H   -2.94666588996660      3.13002974650688     -1.88352662742254
  H   -4.60007870018493      1.03122839545202     -1.38807384294447
  H   -3.60341468969332     -0.12169038330212     -2.31167711312833
  H   -4.08904635210443     -0.50564828274879     -0.64240106132416
  P   0.43375866579760     -1.13090898637362     -2.26916867117618
  P   2.26934327824062     -0.99766147245211      0.51902213583031
  O   -1.36746344539719     -1.64728499316298      0.65093100760723
  C   -0.46131752440921     -2.47122885556175     -3.19787120518598
  C   0.62541790036886      0.15461647389891     -3.58438867091767
  C   2.15979034343092     -1.84233106940343     -2.16578157823789
  C   3.03463378331401     -1.03265186795708     -1.18443702107885
  C   2.77949181567953     -2.67119078597116      1.16366716936825
  C   3.45043009952902      0.09745882459081      1.42641823616064
  H   -1.47305929168582     -2.13235528021986     -3.45851231270432
  H   -0.55083501141917     -3.37319066945321     -2.57710750576931
  H   0.06400237643460     -2.73980300239098     -4.12509193052462
  H   1.12381464139697     -0.25339419395091     -4.47463104585982
  H   1.20316598442097      0.99352344139677     -3.17988489580761
  H   -0.36135745340719      0.53564923778362     -3.87624509376524
  H   2.61549241239538     -1.87237055382583     -3.16652527723579
  H   2.07147835958417     -2.88552869316052     -1.82426713319863
  H   4.05257252632241     -1.44721778691504     -1.13851631318534
  H   3.10951316437961      0.01377654993941     -1.51338356791888
  H   2.29776581493231     -3.47096693835274      0.58598107978897
  H   2.47007402628642     -2.78046805919676      2.21151301230144
  H   3.86858558325660     -2.80685951876295      1.10537183606842
  H   4.49156497033344     -0.20328368002360      1.24528816871716
  H   3.25636957194112      0.05034496678139      2.50535261604025
  H   3.30402195798958      1.12994208061542      1.08874583468170
  C   -0.84925806378648     -2.73906067796188      1.45340453169616
  H   -0.14378090190797     -3.35022200331627      0.87772188858881
  H   -0.32595351750002     -2.26543914386154      2.28669635120643
  H   -1.67538077773999     -3.35516083499536      1.82792728864294
  H   -1.75009029434057     -2.01368856480595     -0.17292926475591
