67
Coordinates from ORCA-job CABXIO-oxo_1_5_tpss_d4_lanl2dz_631gpol_Fe2.opt
  Fe  -0.26134598181791      0.08005031780377     -0.08180652851890
  P   -0.56828655211584      0.72612712243752      2.18580340774242
  P   -2.36271456818974      1.28354705873784     -0.54903313445357
  O   4.31769811345717      7.26852567223701     -2.18918389282367
  C   0.74366270020768      1.67859732775313     -0.52646839837431
  C   1.39317605314694      2.70085023929448     -0.82690281498109
  C   2.14966617567013      3.84482066774351     -1.16658616188229
  C   1.52483349116867      5.10145681947145     -1.40938825702099
  C   2.27476205194318      6.21579821347099     -1.74598680999602
  C   3.68219262385780      6.11948088131300     -1.85403488725122
  C   4.32486057809287      4.88486158034697     -1.61763224377930
  C   3.56280635542067      3.77013550552063     -1.27956126979665
  C   5.75153135205988      7.24149062188594     -2.31730666120416
  C   0.53280353218597      1.87039895189923      3.11686054362612
  C   -0.81645274039886     -0.71786121341365      3.29361077446686
  C   -2.19879169967232      1.63569565091834      2.22358792090621
  C   -3.16475241203635      1.15033914792000      1.12062732937134
  C   -2.46802689285265      3.08005259782937     -0.95873944092484
  C   -3.58102664600926      0.47302471804119     -1.66877734081895
  H   0.44264058122039      5.17766733344763     -1.32979476264341
  H   1.80733053822065      7.17936147021252     -1.93417903764776
  H   5.40466729684155      4.79358537082873     -1.69611019183476
  H   4.05642998236236      2.81754445660562     -1.09610277988295
  H   6.22100190772136      6.96110405143355     -1.36482148499326
  H   6.05734072151165      6.54510782826011     -3.10969569293610
  H   6.03238844511588      8.26130384382900     -2.58687210804940
  H   1.46111486680066      1.36332416867368      3.40107695405824
  H   0.78742792994283      2.72240834502700      2.47469376665357
  H   0.04009252039884      2.23169264903239      4.02990387991252
  H   -1.18799594280653     -0.42022613775041      4.28324628581101
  H   -1.52620747761386     -1.39915021363925      2.80987797009515
  H   0.13326444870078     -1.25462630192878      3.41441091950866
  H   -2.65475904702394      1.52782123411441      3.21862741142623
  H   -1.97002771701548      2.70338484656752      2.08818979119305
  H   -4.10643531518034      1.71684891475629      1.15476901390809
  H   -3.39702421580995      0.08560101585851      1.25939258203850
  H   -1.82308986531144      3.64290064343357     -0.27224469513645
  H   -2.08650474248104      3.24286833492751     -1.97485399181148
  H   -3.49526785714848      3.46420044020539     -0.89377362401010
  H   -4.59269173517195      0.88041488880171     -1.53669287996109
  H   -3.28137761058424      0.61151782308105     -2.71585183988918
  H   -3.58700826102104     -0.60001560833803     -1.44149758110287
  P   0.48352505595738     -0.95329143162398     -2.07885484880980
  P   2.20553844856143     -0.74470754725578      0.68985127598996
  O   -1.33254244900574     -1.19164923083395      0.19429661028765
  C   -0.54867360726634     -2.37459399143011     -2.60911697217264
  C   0.50441553759940      0.18277414706837     -3.52618199511816
  C   2.21469281887664     -1.61697171821982     -1.97954666730338
  C   3.03699343510208     -0.77811485653178     -0.98212260468486
  C   2.60102998440461     -2.44143127757964      1.33408460179261
  C   3.40815092556589      0.31552344010066      1.62125635103176
  H   -1.55890276197739     -2.02181597194833     -2.84946799572253
  H   -0.63236454713640     -3.08062289749993     -1.77470042170930
  H   -0.12445674498670     -2.87801599400866     -3.48827075351281
  H   0.79238998571519     -0.34238253748599     -4.44713486664516
  H   1.20353345082980      1.00293404675017     -3.32546830450905
  H   -0.49308916667420      0.61988255882543     -3.66103876972925
  H   2.67395471746725     -1.61927299552037     -2.97845195937420
  H   2.15548826444815     -2.66349580022189     -1.64722972012748
  H   4.06154847244364     -1.16757891608384     -0.89205700587712
  H   3.09535326422079      0.26614769752502     -1.32148066223592
  H   2.01159730671878     -3.19200208918272      0.79216163846141
  H   2.31865125939786     -2.50910291590179      2.39303803296707
  H   3.66897536840979     -2.68344561853888      1.23900565981672
  H   4.44605598582723      0.04050286383361      1.38678022680641
  H   3.26195964687057      0.20359044597506      2.70294616814424
  H   3.24287036284346      1.36610931113838      1.35132294324073
