67
Coordinates from ORCA-job CABXIO-oxo_1_1_tpss_d4_lanl2dz_631gpol_Fe2.opt
  Fe  -0.07020454930372     -0.00371286371440      0.06162589506275
  P   -0.45936779604465      0.91004635147809      2.11877291634760
  P   -2.04132539209823      0.94738551660092     -0.55707565234906
  O   4.24569974209031      7.41634531216735     -1.82960014894313
  C   0.92062483560390      1.59223431602182     -0.42596171174488
  C   1.56651537439743      2.61653760997456     -0.70392664228752
  C   2.27197896537226      3.81399045602748     -1.00570954185826
  C   1.73555722159315      5.08031351264088     -0.64817758559289
  C   2.41618967992822      6.25475618153814     -0.93542179288716
  C   3.66329857101431      6.20874352415815     -1.59460227229617
  C   4.21489232501871      4.96505682714231     -1.95968911201670
  C   3.52240091892775      3.78920530614266     -1.66539984400018
  C   5.51587728881342      7.42804129139882     -2.49924235548328
  C   0.59364672226809      2.23972418865685      2.82393156994498
  C   -0.58977686107599     -0.36703622869773      3.43345694631359
  C   -2.14335507512584      1.71854417067611      2.09147363298117
  C   -3.02382647823665      1.06795788639248      1.01215038015922
  C   -2.00461953136679      2.65940468926069     -1.21849943964233
  C   -3.18945082156287      0.04507763224365     -1.67540556580068
  H   0.77294110345860      5.12459445276250     -0.14162615690112
  H   2.00891660564664      7.22586144383352     -0.66363253035707
  H   5.17319965010651      4.90703272381616     -2.46870046730746
  H   3.95369263802880      2.83091880078003     -1.95058637721825
  H   6.27370484301771      6.88984083255392     -1.91266029294465
  H   5.43484557192413      6.98520344268877     -3.50194105346929
  H   5.78825611121138      8.48249996805247     -2.57976153617103
  H   1.54364797680015      1.83810961633985      3.19008615967239
  H   0.80938504293061      2.97070032551033      2.03568511144375
  H   0.07713337440579      2.73129651808807      3.65948638570616
  H   -1.00245352431764      0.04364595696008      4.36421584491249
  H   -1.22709632627478     -1.17624405319550      3.05785679656673
  H   0.40300683976935     -0.78557673987569      3.64370792627509
  H   -2.60755212698330      1.65931963532466      3.08561052997689
  H   -1.98781693408835      2.78352287563054      1.86621191006323
  H   -3.95534459751466      1.62942240822990      0.85428240314977
  H   -3.28330194555535      0.03752038885796      1.29267570305637
  H   -1.47178738221531      3.30885067055954     -0.51508069548096
  H   -1.44186906413008      2.68042263648310     -2.15894022844128
  H   -3.01903193275005      3.04465069695346     -1.38820812248348
  H   -4.18886466153179      0.49967407444398     -1.64287574152267
  H   -2.83267012084212      0.07380104799702     -2.71220359598721
  H   -3.25643025614896     -0.99859570050214     -1.34620883187369
  P   0.38720695869312     -0.80199804307381     -2.02192700933726
  P   1.97321514191432     -0.80641584630683      0.61818420486734
  O   -0.94436640664685     -1.38980078999438      0.50708361793403
  C   -0.62482704988058     -2.23710895065570     -2.56520750926694
  C   0.36401665425452      0.37511830964513     -3.43284867256520
  C   2.12199627249800     -1.50616053098521     -2.04651914929246
  C   2.97814457112516     -0.87092098818683     -0.93911387836219
  C   1.90186744298514     -2.54746486681064      1.20541769008141
  C   3.10273330631591      0.03720144070655      1.79598668984451
  H   -1.62616398487905     -1.91762145968825     -2.87154835466137
  H   -0.73065441853867     -2.91650900283874     -1.71069969586144
  H   -0.14968394454642     -2.75962780843891     -3.40623039736147
  H   0.70115568691497     -0.11298887851083     -4.35707304799119
  H   1.01795693298342      1.22210287885095     -3.19536918128109
  H   -0.65131002265079      0.75969515570746     -3.59153657571764
  H   2.57247816641702     -1.36606908318275     -3.03857327808760
  H   2.03047162946341     -2.58903112703071     -1.88077324419223
  H   3.91259261825030     -1.42670521125123     -0.77916109772874
  H   3.22459214633071      0.16955685934814     -1.18794016808723
  H   1.30878215074897     -3.13884652138508      0.49819788479360
  H   1.37860297635843     -2.58345522272409      2.16819632029306
  H   2.90174651449832     -2.98731819935835      1.31769006799670
  H   4.10317747276197     -0.41356507838252      1.74517490617759
  H   2.73585021466610     -0.05825663735896      2.82517468897035
  H   3.16975294480241      1.09810189950416      1.52772237226374
