68
Coordinates from ORCA-job CABXIO-OH_1_6_tpss_d4_lanl2dz_631gpol_Fe2.opt
  Fe  -0.04125713863250     -0.25101434120273      0.12517737826522
  P   -0.45564568894884      1.07933071762757      2.36845409430816
  P   -2.13549447011005      0.94828636565831     -0.79608360708014
  O   3.97407284408376      7.48408202663254     -1.35418204262425
  C   1.02896351737994      1.40260241265317     -0.25614007649325
  C   1.60327216992116      2.48978132053863     -0.48002149156243
  C   2.22414623410180      3.73887724831586     -0.72521282224001
  C   1.94829831897628      4.86157086109927      0.10523279870540
  C   2.54538134322537      6.08893999596238     -0.13252600348665
  C   3.44657564029987      6.24240564959343     -1.21050242131389
  C   3.73748616641942      5.14308375193808     -2.04551982657916
  C   3.12970710619035      3.91323572845420     -1.80093421574812
  C   4.89941760806710      7.70683750087982     -2.43299836030332
  C   0.78619621424559      2.17286384443250      3.19012986333358
  C   -1.42647869307212      0.40549042049067      3.79923007849409
  C   -1.64529694203909      2.32741995097292      1.65479926184986
  C   -2.75994719467420      1.67393108690295      0.80738691283437
  C   -2.01593193792362      2.43959029320003     -1.87943773258784
  C   -3.63467874702273      0.06283462707093     -1.41051978852160
  H   1.25456386790217      4.74944840158294      0.93608160333656
  H   2.33824470552892      6.95193800290540      0.49578219901693
  H   4.42849185185839      5.24244969717570     -2.87804717860469
  H   3.35475416406655      3.06610505573508     -2.44607334405443
  H   5.78766182126892      7.07004459214004     -2.32200499094704
  H   4.41934838992443      7.51941653039917     -3.40314397155089
  H   5.18212008063719      8.75833347336726     -2.35359497490254
  H   1.43450450572804      1.57853525010890      3.84661988936707
  H   1.41029683711502      2.64071638571731      2.41949447265911
  H   0.30200945812328      2.95432841778460      3.79230295352109
  H   -1.80087810593027      1.20518119483597      4.45351194848722
  H   -2.27909484948418     -0.17457803387372      3.42339564853329
  H   -0.79512297153219     -0.26729907245856      4.39453007916934
  H   -2.08739456224216      2.91307788801373      2.47506992375556
  H   -1.04699860219008      3.01661616530746      1.04146619519722
  H   -3.54333936204259      2.41170216957991      0.57667616520099
  H   -3.23969256309472      0.85433151509818      1.36149204986387
  H   -1.15848394080940      3.04743306952168     -1.56545705337034
  H   -1.84612256445671      2.13534508621977     -2.91994594098876
  H   -2.93129206576392      3.04610345783729     -1.83945027169456
  H   -4.53165677136379      0.69582646187431     -1.36321443358070
  H   -3.48421305564421     -0.25583048768251     -2.45010072506303
  H   -3.78406082223596     -0.83252993152567     -0.79473031909243
  P   0.51902629440420     -1.14137789092723     -2.23865177523438
  P   2.28258417232332     -1.30773514628987      0.56440409438295
  O   -1.28267691497750     -1.48301678056338      0.76652412736228
  C   -0.47359721702990     -2.40816821523195     -3.14587270816013
  C   0.72643846903197      0.20724737108587     -3.48009927038659
  C   2.21975779260250     -1.91084149516071     -2.17019479702458
  C   3.09741908846903     -1.21635929567736     -1.10592158548537
  C   2.63462027827401     -3.04491246250239      1.10569992689845
  C   3.39953128814772     -0.30077350642133      1.63092106582707
  H   -1.47029369854718     -2.00627809069451     -3.36802440923646
  H   -0.60297519391899     -3.29480437293168     -2.51291078368461
  H   0.00791375042128     -2.70194710674415     -4.08869698181540
  H   1.21201567473965     -0.15838345650318     -4.39514179045218
  H   1.32072349544870      1.01346465144399     -3.03452191987622
  H   -0.25489507582898      0.61982889145805     -3.74501180595517
  H   2.69391501088801     -1.86697588065177     -3.16149404060019
  H   2.09185961385852     -2.97539609015459     -1.92301634141763
  H   4.09987978891347     -1.66719674281244     -1.06996131231105
  H   3.21375465850240     -0.14853983178368     -1.33976081399381
  H   2.08273568823792     -3.75535136260947      0.47733391691281
  H   2.29315050331433     -3.18213189157986      2.13990815931527
  H   3.70730123270541     -3.27809889529503      1.05409721723299
  H   4.44584994128119     -0.62207045399261      1.53691622272302
  H   3.09675626442481     -0.39524276932678      2.68161157756210
  H   3.30809511959130      0.75046968010888      1.33324848743412
  H   -1.19023182112758     -1.87373360712781      1.65793361647393
