75
Coordinates from ORCA-job CAVYIJ-oxo_1_4_tpss_d4_lanl2dz_631gpol_Co2.opt
  Br  4.51938211869514     11.41428944394072      7.86878069685961
  O   7.00133123085166     11.00861930909622      6.42269975530097
  Co  5.96940576708239      9.77159342861443      6.67155111896931
  O   5.41000492488683      8.05230261967220     12.16185016776652
  O   0.88172790812490      9.84422476276629      3.96971728429916
  N   7.19929126207756      8.51978808203010      5.61862982457926
  N   4.87784976747687      8.09998461222420      6.98434439269312
  N   7.12320438572127      8.78790643759618      8.38268165110775
  N   5.02353200389605      9.77752952225251      4.62857937991349
  N   5.72786481886925      9.22660006958516     10.20165649520363
  N   2.80501184724014     10.30333160839471      5.15636562267494
  C   6.56817105214231      7.16514488903618      5.49036863994423
  C   5.42480003723850      6.97474749341688      6.45738205384337
  C   3.81536637652669      7.99747018190232      7.81163292961104
  C   3.25299487719040      6.76717695587827      8.14732055863033
  C   3.81754858183922      5.60226964706818      7.61875477202253
  C   4.91815114706134      5.70979169329697      6.76104486289991
  C   8.47257721321518      8.49711162665205      6.39348924727109
  C   8.17329829565769      8.13048047284993      7.82449211906105
  C   6.79202132291793      8.51158615627860      9.67195985399838
  C   7.51592169410240      7.55182865660952     10.42529280075036
  C   8.58383881528611      6.89593399483945      9.83260648609802
  C   8.92648254887179      7.17942960367198      8.50097498869509
  C   7.35296564150627      9.19042614590856      4.29358190693201
  C   5.97668321276590      9.43070045026053      3.72235375881750
  C   3.74533508261698      9.95658495848014      4.19721807603003
  C   3.40923960464674      9.80542335516234      2.82815712660465
  C   4.40175020902660      9.46720723844271      1.92100731239806
  C   5.71546419168048      9.25756231353354      2.36865299967863
  C   5.12329670175495      9.02077298594359     11.46304749159678
  C   4.08783673521149     10.07638928956345     11.88799928773685
  C   2.83736654653636      9.96251496914614     10.97984471207207
  C   4.69294427935863     11.49925766974985     11.79572256515995
  C   3.68765699395037      9.77787531076866     13.34640967774193
  C   1.40270017875739     10.30441582578502      4.98216750610050
  C   0.58796314339391     10.92694365339378      6.12925720849587
  C   0.98238385758578     12.41814863690106      6.28311617859671
  C   0.84859146645990     10.17244870865906      7.45502615862980
  C   -0.90371444334147     10.81494600866892      5.76063799834434
  H   3.43744629197265      8.93354749589048      8.20499608857688
  H   2.40015280761886      6.73335430509888      8.81961143482073
  H   3.41297591015567      4.62471583064499      7.87090037634329
  H   5.38132553473730      4.82425429540683      6.33191596891477
  H   7.20723061257176      7.35126841058249     11.44301367278222
  H   9.14958596353025      6.16306105565659     10.40386290567320
  H   9.75700779682505      6.68221753793911      8.00555990232697
  H   2.37947784680716      9.94511567973903      2.52651310242844
  H   4.15394907538005      9.35663340194169      0.86757835724773
  H   6.51253069444996      8.96707939163848      1.68845879760937
  H   7.33086099972749      6.38748426321526      5.62855064187700
  H   6.18219739211299      7.07311903829486      4.46607736951141
  H   8.89208554041884      9.50978683426442      6.33606787751488
  H   9.18235019677390      7.78858111335982      5.94310182539171
  H   7.95876957288227      8.57272672864298      3.61508124592180
  H   7.87597174255104     10.13696327490573      4.48067825183191
  H   3.06454346576896     10.22539721383759      9.93919315926926
  H   2.06684257657800     10.65965727429548     11.33434808771538
  H   2.41830222027811      8.94706927185819     11.01381452505384
  H   5.59089494500559     11.58359850292355     12.42163790555839
  H   3.95569484741821     12.22635682382107     12.16049830078150
  H   4.95604836347581     11.78459136817584     10.76900675503391
  H   3.26282640169629      8.77245074224570     13.44350973362207
  H   2.93926810645119     10.51187622880916     13.67248171322204
  H   4.55445549882825      9.84304898374953     14.01471856765794
  H   2.03616521144711     12.54403195085077      6.56416919183269
  H   0.36840942853353     12.87427997572204      7.07101496307829
  H   0.80294536280627     12.96848419964227      5.35043115611114
  H   0.65716359407811      9.09589153531822      7.34521465877786
  H   0.17591356670037     10.56125690658431      8.23074992141655
  H   1.87577884587336     10.32186821095581      7.80974143308802
  H   -1.11772522557231     11.32893078519059      4.81689399984667
  H   -1.50790338419605     11.27167583241151      6.55550359810984
  H   -1.20620115057478      9.76693786492728      5.64760531914880
  H   5.40220690274594     10.01570991178698      9.63303504555084
  H   3.18711104526028     10.65771897163086      6.03958847922281
