80
Coordinates from ORCA-job CAVYIJ-CH3OH_1_4_tpss_d4_lanl2dz_631gpol_Co2.opt
  Br  4.41077174391790     11.43019611701364      7.91267713864920
  O   7.06697574375497     11.25721339230835      6.16438513240038
  Co  5.70460077878322      9.60872670822536      6.69366631556610
  O   4.87605226141726      7.63990231658851     11.77092047311873
  O   0.77966358648365     10.16313839533766      3.86563484941606
  N   7.03905977879495      8.33677360761115      5.61199972064027
  N   4.70184789650126      7.80195293800768      7.09813981322087
  N   6.97953441394684      8.69048570225415      8.36560239343162
  N   4.91142012292160      9.74031830994185      4.61484073777583
  N   5.56823469747154      9.14143745045979     10.17322890146530
  N   2.71388370941473     10.36665519340706      5.11253481240160
  C   6.38405880130045      6.99449687541622      5.52434743508230
  C   5.42546295942264      6.73609674710248      6.67344681093838
  C   3.78975456163324      7.63547013123371      8.07672504846025
  C   3.57444501668726      6.40250357610052      8.69570552584296
  C   4.33250693754440      5.30520371840383      8.27639794143722
  C   5.26389205075615      5.47192582241814      7.24253448791529
  C   8.30958811224747      8.30178395331523      6.37593834951369
  C   8.00865441490134      7.98404120952369      7.81920273202622
  C   6.61432047030811      8.39872326017826      9.64142965019094
  C   7.28430767524825      7.40962814066477     10.40337464969848
  C   8.33951418657337      6.71949840232403      9.82748354213593
  C   8.70968345459002      6.99860373122375      8.50233013500467
  C   7.20451661152519      8.97356208580337      4.27966850180798
  C   5.84305463750018      9.30885971723056      3.71553586569743
  C   3.64877162254133      9.99020629993737      4.15987399480904
  C   3.31805221133910      9.87338462170926      2.78718225948107
  C   4.29350732891421      9.45865427994124      1.89338177829677
  C   5.57933243631026      9.14694159850894      2.36086677695252
  C   4.78391550909165      8.76530871008449     11.28320628051049
  C   3.81495508923602      9.83125088404380     11.82357122407229
  C   2.55184576718804      9.85527299630802     10.92431586028710
  C   4.47198072644513     11.23086958529323     11.85567408861505
  C   3.41365580243742      9.40907190586921     13.25207990590644
  C   1.31485985008766     10.44767657546914      4.93376675618809
  C   0.52048044080970     10.92539350850651      6.16110101470898
  C   0.90004689481478     12.39857973172876      6.46177680759136
  C   0.82490823174310     10.03343316336107      7.38814415872565
  C   -0.97885332008031     10.83485667309188      5.81836056066596
  H   3.25237785729345      8.53057132664453      8.37480321900908
  H   2.85094251997519      6.31776703685692      9.50152717613363
  H   4.20710047037437      4.33342138002659      8.74876384981413
  H   5.86626114727641      4.63630663663447      6.89264466654278
  H   6.95187720425910      7.20541461854397     11.41251139667162
  H   8.86959262241422      5.96298592492059     10.40217967235998
  H   9.51795942641382      6.46156361017390      8.01162018573818
  H   2.30425000091721     10.08940690188549      2.47661701782505
  H   4.05149081817659      9.36215750790572      0.83708521499973
  H   6.35683432209714      8.78420227083480      1.69270967004237
  H   7.14210709089324      6.20014649945585      5.46590700669793
  H   5.81125134822170      6.97779777208701      4.58708836229462
  H   8.76634790393165      9.29511368353613      6.27814654155280
  H   9.00921810929082      7.56253617217115      5.95482533020409
  H   7.75642615767365      8.32250979069403      3.58431004489380
  H   7.78589249486175      9.88829281253045      4.44354381108714
  H   2.78489841751202     10.19463794538973      9.90765727560298
  H   1.81953750790017     10.55552128700434     11.34771998963333
  H   2.08427332280498      8.86187125566692     10.88020831779578
  H   5.40915638550736     11.21579505275437     12.42801245964001
  H   3.78796227321813     11.93612940499063     12.34556956408402
  H   4.67837971885815     11.62374101568380     10.85147405063269
  H   2.95987642755103      8.41221493476045     13.25573726140443
  H   2.69034270718059     10.13077675069721     13.65330145696696
  H   4.28614604270243      9.38548874480930     13.91711122364295
  H   1.96037713406626     12.50912038588946      6.72206714067277
  H   0.30562429712096     12.75812754164706      7.31227532279850
  H   0.68168689351828     13.03932901973615      5.59747650592041
  H   0.62020864612227      8.97606093371282      7.17070253072472
  H   0.18514235752033     10.34066909023234      8.22599334896857
  H   1.86563789071489     10.13608940312684      7.71964125666962
  H   -1.22134845764946     11.44614760473745      4.94210663169226
  H   -1.56699041254940     11.19394917360561      6.67316432804647
  H   -1.27385452398228      9.80152402543690      5.59886820349200
  H   5.30658520567371      9.98619381969698      9.65304760928308
  H   3.09472154457087     10.60074702894589      6.03485112899197
  C   7.85266082868215     11.87409246938972      7.23130908351104
  H   8.45274851277896     12.68736668884634      6.80926490836002
  H   7.19175008190954     12.24125117158922      8.02351891311011
  H   8.50296205238421     11.08971504177688      7.62348878341357
  H   6.39651243728892     11.91759822902408      5.88277710842524
