76
Coordinates from ORCA-job CAVYIJ-OH_1_5_tpss_d4_lanl2dz_631gpol_Co2.opt
  Br  4.49741221883276     11.52670186298726      7.87420977384873
  O   7.25876215701533     11.11018303575310      6.34862586233159
  Co  5.95692030886294      9.86233740566431      6.64181688100810
  O   5.27783382140947      8.00280176827133     12.06020882409855
  O   0.88696536534350      9.92716000203923      3.96575323530055
  N   7.19309000499352      8.47785177646538      5.56383629102532
  N   4.84258694500438      8.04905704487662      6.97832448843200
  N   7.08696570259093      8.79798349330336      8.34186908057840
  N   5.03522372462456      9.80385309168861      4.62454884959848
  N   5.67468310543185      9.24082386078649     10.15388333367171
  N   2.81496732525452     10.33254183999276      5.16636055127576
  C   6.52966335304435      7.14839362289607      5.45181653430865
  C   5.45802790470316      6.93968366609575      6.50509648798031
  C   3.83862488580070      7.91992605155184      7.86949660745020
  C   3.40632068498240      6.67718970117315      8.33316539377303
  C   4.04963924324319      5.52821858218575      7.86220434975911
  C   5.08748578650839      5.66239291411420      6.93190881950894
  C   8.45016667729732      8.44391396338555      6.35558175103311
  C   8.12495923481688      8.10969214018324      7.78955135447199
  C   6.73470648460023      8.51560138578811      9.62566506393667
  C   7.43033697017411      7.54047087663648     10.38461639265930
  C   8.48957780652475      6.86252994042100      9.80261715789615
  C   8.84579695023591      7.13911667568971      8.47439263793844
  C   7.35329832957771      9.15995672933267      4.25316466831378
  C   5.97909276275526      9.45269806023758      3.70306561454166
  C   3.75446690390509     10.00482682483400      4.20038690153845
  C   3.41189407439578      9.89640395573515      2.82999445810796
  C   4.39417305352152      9.56635540826997      1.90981373632759
  C   5.70380391209646      9.31870355104836      2.34827638931445
  C   5.03394270311353      9.00446827659919     11.39217737118849
  C   4.01817774279480     10.06997279406679     11.83955733139910
  C   2.76844065037927     10.00145104228613     10.92628586618004
  C   4.64896329529780     11.48308115860213     11.78550342199707
  C   3.60641308858181      9.74243212736940     13.28873372574301
  C   1.41114064821509     10.34880579735614      4.99283994035475
  C   0.60050041301118     10.94181386679744      6.15717272627641
  C   0.97550650976044     12.43773314101668      6.31908649146465
  C   0.88721944919606     10.17862135215437      7.47166699819653
  C   -0.89385983051408     10.81262207577975      5.80458004224149
  H   3.39609074899649      8.84778411591046      8.21626911198931
  H   2.59871346423910      6.62119592630363      9.05806600806294
  H   3.75385330327157      4.54261648857854      8.21492598791972
  H   5.60771623193441      4.78860246476405      6.54533548125129
  H   7.10380648526500      7.34006706116576     11.39643310615255
  H   9.03312860180196      6.11567271676669     10.37734363853751
  H   9.66325937191507      6.61804110240477      7.98194658865785
  H   2.38280678953041     10.05854000291331      2.53776553627888
  H   4.14029032643835      9.48585104617353      0.85510101691184
  H   6.49062620807604      9.02156084252046      1.65935612171641
  H   7.27753481502090      6.34466506866367      5.50042049793039
  H   6.05421401415941      7.09823221740801      4.46266285537870
  H   8.88976487861128      9.44638324848024      6.28850072502459
  H   9.15583284093231      7.70993694207772      5.93794678355515
  H   7.93255832915849      8.54619815710553      3.54704799825452
  H   7.89918940381209     10.09144762268171      4.44800799228408
  H   3.00469370298527     10.27442296155984      9.89082386586751
  H   2.01417497971615     10.71181564399339     11.28960607133224
  H   2.32488779057922      8.99607871460588     10.94409612198297
  H   5.55238847315731     11.53319713376680     12.40747463006798
  H   3.92723488054476     12.21251521862847     12.17575753621854
  H   4.90874190356703     11.79275260583063     10.76516532425606
  H   3.16111427547141      8.74368113628262     13.35771773366824
  H   2.87123600001807     10.48259618831183     13.63057768885724
  H   4.47120952589532      9.77262462128565     13.96227876466316
  H   2.03119741724272     12.57439798454810      6.58632575095839
  H   0.36577464747954     12.87697136566978      7.11972501954327
  H   0.77420123085124     12.99330973532594      5.39393562322743
  H   0.71021311607926      9.10055715331617      7.35468097721949
  H   0.21886120736594     10.55134810088781      8.25880810936690
  H   1.91579867333758     10.33903880379437      7.81830528062616
  H   -1.12550270176171     11.33272961248975      4.86852614470888
  H   -1.49433295713175     11.25371909274183      6.61091130901133
  H   -1.18375817774705      9.76165542449734      5.68569214316338
  H   5.35413413307534     10.03460202296936      9.58891080864435
  H   3.19493984300627     10.64880044468957      6.06386642801721
  H   7.15430585572192     11.93352014745081      6.87273981362231
