75
Coordinates from ORCA-job CAVYIJ-oxo_1_6_tpss_d4_lanl2dz_631gpol_Co2.opt
  Br  4.43085271137572     11.47786601903751      7.85761573963446
  O   7.15342298375200     11.06530023926958      6.39851301621823
  Co  5.94534392351853      9.86322248513939      6.67609886077586
  O   5.37223067270930      8.08310824718312     12.13967498401628
  O   0.89440187089169     10.14369592630844      3.84871182146343
  N   7.16308320544288      8.46764237144865      5.57244820629206
  N   4.80493206644439      8.01727977565578      6.99154140185566
  N   7.08509437784406      8.76873234100826      8.34121707451213
  N   5.03370489547585      9.81950890173276      4.61444867725693
  N   5.69748961016543      9.23329968231183     10.16853701259117
  N   2.80340198729118     10.34400710564321      5.12799066966238
  C   6.49067913567696      7.14492985658300      5.44554261276825
  C   5.43897422824407      6.91914731406747      6.51738746676008
  C   3.82466589889043      7.86007636631236      7.90347635116415
  C   3.43294585367249      6.60972089163965      8.38410283012162
  C   4.09648472550933      5.47514638487936      7.90656229799087
  C   5.11319585036844      5.63339487501906      6.95704194827896
  C   8.42717622203377      8.41990657073868      6.35226485549022
  C   8.11555725161880      8.07571689265203      7.78388035882071
  C   6.74340141910831      8.49304639498008      9.62946280263981
  C   7.43293889285734      7.51015972192885     10.38112070360678
  C   8.48265651251770      6.82270730552378      9.79218761657501
  C   8.83532853672203      7.10051580263237      8.46364050479212
  C   7.34441784261525      9.15705187220867      4.26647418711853
  C   5.98490045445006      9.47837519646622      3.70164988891040
  C   3.76305950136172     10.04319131943207      4.17036756037924
  C   3.44492744695803      9.97656634763969      2.79171678787740
  C   4.44059841148038      9.66513110030122      1.87896565138691
  C   5.73597139932876      9.38588839213627      2.33649575738656
  C   5.09441814411929      9.04755996787008     11.42858151666269
  C   4.06945090475466     10.11293389088301     11.85305517828683
  C   2.81129137127091      9.99769857197635     10.95654957909735
  C   4.68762233179475     11.52938920661050     11.74374020121115
  C   3.67686143194496      9.83343089366980     13.31829407264594
  C   1.40979430896048     10.43382825680004      4.92671521827776
  C   0.58266431129746     10.94015976663282      6.11983642138270
  C   0.94955660345766     12.42802191073092      6.36758575745616
  C   0.85877000697841     10.10147712411910      7.38940838962673
  C   -0.90860390926527     10.82975462478340      5.74513392567598
  H   3.36381947746964      8.77717356509712      8.25686307722385
  H   2.64090620628684      6.53590810546976      9.12467469086894
  H   3.83372368284731      4.48372172876489      8.26903464958000
  H   5.65066894980042      4.77210539585222      6.56567143662423
  H   7.10995180505301      7.31405946768344     11.39567477775038
  H   9.02017870582249      6.06771335294667     10.36183613130031
  H   9.64565388307622      6.57383583289506      7.96575765621068
  H   2.41936785916774     10.14619128663485      2.48894820490560
  H   4.20481613437466      9.61560577137595      0.81823638817703
  H   6.53269971342217      9.09604418737176      1.65595179041205
  H   7.23363710638095      6.33515463214748      5.46156732204303
  H   5.99553470960793      7.11972772328208      4.46546011323980
  H   8.86918138963258      9.42315880644880      6.29602759834025
  H   9.12912562285440      7.69197729471795      5.91779848835793
  H   7.92200831583657      8.53879784803255      3.56257284437933
  H   7.90288140533201     10.07941329332887      4.47371913517602
  H   3.03280595625418     10.24407943207249      9.91070840585247
  H   2.05021862870518     10.70618914288253     11.30896768395129
  H   2.38365401037247      8.98664344603563     11.00607243392369
  H   5.59885663317110     11.60829712675710     12.35037295360518
  H   3.96414439217911     12.26388029904072     12.12027617875861
  H   4.93331360106210     11.80792889044784     10.71076124828822
  H   3.23912767721889      8.83524270509521     13.42864618161128
  H   2.93981753093303     10.57993290838103     13.64058037517117
  H   4.54829973890470      9.89515226555805     13.98028223925275
  H   2.00384339923425     12.55344836540723      6.64476705764199
  H   0.33274530685881     12.81636363547571      7.18873806127545
  H   0.74948161948389     13.03381987561971      5.47448224973986
  H   0.68756290521681      9.03170962784934      7.20749738154875
  H   0.17822797770481     10.42542549573292      8.18749788381651
  H   1.88150041837599     10.24524555617053      7.75832678356563
  H   -1.13339149964730     11.40487455369965      4.84020065093409
  H   -1.51593473723526     11.22127195892033      6.57139779965028
  H   -1.19640598500474      9.78719099996695      5.56265468459533
  H   5.36692604915564     10.01450258589403      9.59387166873145
  H   3.16228801645245     10.54112292298657      6.06756586682584
