75
Coordinates from ORCA-job CAVYIJ-oxo_1_2_tpss_d4_lanl2dz_631gpol_Co2.opt
  Br  4.62188796567963     11.50996106500260      7.84266963488855
  O   6.90985580910780     11.05399004036945      6.41944248301331
  Co  5.93954935937225      9.72686884775396      6.65639236128827
  O   5.36420087477571      8.02398540314910     12.11882173000799
  O   0.85500919482142      9.80387094324527      4.07919147572300
  N   7.22432034856113      8.52866327220003      5.61734567068439
  N   4.88476068961915      8.06827510468766      6.96055117135320
  N   7.11190087026943      8.79698063504439      8.36408027628532
  N   5.01387371863604      9.72823874738750      4.64823502263738
  N   5.68336356390849      9.20104890298791     10.16130915591642
  N   2.81038861872877     10.26260007370714      5.21136254083046
  C   6.63501176244587      7.15254412935441      5.51075424994677
  C   5.45289620793454      6.95292049862724      6.43516368316636
  C   3.80061856466135      7.95836186393637      7.75805385229544
  C   3.23177368138030      6.72380516230237      8.06474189109906
  C   3.81388176313212      5.56693279760115      7.53532707099609
  C   4.93841769771002      5.68399914954148      6.71021321648868
  C   8.49414058761605      8.56014774514514      6.39476055523678
  C   8.19575561219886      8.18246410729027      7.82307787762953
  C   6.77288942815874      8.51154453536419      9.64856668365398
  C   7.51435790776424      7.57492376065472     10.41240462744840
  C   8.61619193122580      6.96016265859031      9.83694907337641
  C   8.97361566811083      7.26112930512212      8.51297960985513
  C   7.34742174402253      9.19677430103670      4.29022928736379
  C   5.95793287418027      9.38495407913025      3.73247460717923
  C   3.72616691954161      9.88502520591499      4.24003568656947
  C   3.36278348190391      9.68718234988559      2.88460558892951
  C   4.34374873950286      9.34393432487451      1.96623693488904
  C   5.67227958146325      9.17818076156408      2.38854291049692
  C   5.07494554764218      8.99096204400115     11.41917213607236
  C   4.03609980136444     10.04462936266184     11.83930314906612
  C   2.81690674527143      9.97790341379304     10.88699489448097
  C   4.66596696531162     11.45964302198805     11.80506611792809
  C   3.58307290221169      9.71125893561004     13.27410282468280
  C   1.40558803254621     10.29138783561634      5.06243959477271
  C   0.63060972679491     10.98099937142725      6.19789807613745
  C   1.05285681771648     12.47114648762429      6.26852777484855
  C   0.91636569729077     10.28668001617354      7.55028262076792
  C   -0.87189193622495     10.87680853709739      5.87359192454393
  H   3.41055646173173      8.89076474417622      8.14932736833299
  H   2.36078221393724      6.67742398667982      8.71249389349799
  H   3.40301275266200      4.58594931192843      7.76323456361879
  H   5.41341338005307      4.80254006855090      6.28539539216892
  H   7.19597613705519      7.36146175399281     11.42456156663932
  H   9.19789051390202      6.24627357373144     10.41620592690509
  H   9.83138204691087      6.79691331975256      8.03213950014582
  H   2.32465614630175      9.80206870916551      2.60120203427461
  H   4.07597764967679      9.19949501075328      0.92181106348877
  H   6.46154612546601      8.89338671975455      1.69704499300118
  H   7.41043726005924      6.40231609054894      5.71429096554542
  H   6.29998073053193      7.00789772538084      4.47463906554583
  H   8.86713748900131      9.59169396957968      6.34287444755438
  H   9.24014901373882      7.88422782236171      5.95236189004105
  H   7.97416841596050      8.60748634897488      3.60544372071422
  H   7.82762010348470     10.16736645895514      4.47378413924242
  H   3.08350269895480     10.26781504493670      9.86240193335442
  H   2.04520105523717     10.67734472328355     11.23422468903305
  H   2.38122975141890      8.96894984576048     10.87441315433011
  H   5.54343379075156     11.51402702609677     12.46253967574220
  H   3.92799862544002     12.18980788453619     12.16222507316614
  H   4.96930281746066     11.76364293392498     10.79478086603929
  H   3.13874903369032      8.71069537115561     13.32683905898144
  H   2.83590611902651     10.44766699447397     13.59761715232562
  H   4.42835440898682      9.74082548266738     13.97158741006744
  H   2.11439520505041     12.59168980367974      6.52186192869841
  H   0.46291498290867     12.97713086777780      7.04414949689203
  H   0.86386681296216     12.97725614336350      5.31298515503792
  H   0.70253393244564      9.21004526260881      7.49821168479665
  H   0.27537907298771     10.72490851080574      8.32635784755208
  H   1.95674349473586     10.43217550779849      7.86913719530572
  H   -1.10188897620024     11.35250955789546      4.91379803304748
  H   -1.44817852546425     11.37760163722236      6.66244998254777
  H   -1.19260957146868      9.82985674809469      5.81454602295055
  H   5.36580766159003      9.99538329064652      9.59570090637504
  H   3.21805570265425     10.65401295151911      6.06696416048872
