74
Coordinates from ORCA-job CAVYIJ_1_4_tpss_d4_lanl2dz_631gpol_Co2.opt
  Br  4.99625087200907     11.66378828831611      7.59719013778925
  Co  5.58638020025210      9.52741033606637      6.54549469233482
  O   4.93847941257490      7.86463366529422     11.71776145431036
  O   0.76903661693956     10.27184571906645      3.97972848855936
  N   7.09952373731877      8.44444238763953      5.53974853818425
  N   4.83102364915270      7.68316706587089      7.06049692777442
  N   6.99991622961015      8.83670884193679      8.25637919628876
  N   4.90109785499085      9.73665619008390      4.54533654651092
  N   5.56218201996400      9.28598351415176     10.02476477454018
  N   2.77658094628077     10.49705203930397      5.09305849794420
  C   6.57729803045267      7.03755911247519      5.48131054775576
  C   5.66915850962745      6.69634595432992      6.65152543714018
  C   3.95173659583371      7.44688347274512      8.05551229722652
  C   3.88856824982886      6.21647045965764      8.71204065873706
  C   4.75960656624861      5.20016116510380      8.30720119034270
  C   5.65380992568198      5.43826726803928      7.25383616696968
  C   8.37328381944250      8.54491433990371      6.30419799182349
  C   8.09388553892720      8.21489837739120      7.74722648396192
  C   6.65554942388240      8.57837840803588      9.54133098436532
  C   7.38424629549070      7.66696614944548     10.34250908417201
  C   8.49822083651780      7.04477284115112      9.79695098544661
  C   8.86990780706386      7.31704595149440      8.46989452975232
  C   7.20518098066073      9.05390945158558      4.18516150982962
  C   5.81903057096590      9.30313684064877      3.63456535379904
  C   3.63900320594474     10.02316309616958      4.11957632856475
  C   3.25963106315600      9.84936560359835      2.76751687331499
  C   4.20638876538421      9.38819967189885      1.86392754657875
  C   5.51410535986881      9.10534258458707      2.29480371692422
  C   4.81150805682550      8.95779026952706     11.16782320619612
  C   3.84691078992543     10.04979903967096     11.65527186289547
  C   2.73872004918805     10.26695347356366     10.59737408055815
  C   4.62438405732254     11.37187405695192     11.87799048042241
  C   3.21800145987576      9.57532523562793     12.97851925457465
  C   1.37313003481973     10.62063623819744      4.98898633917092
  C   0.68852145123981     11.20242831923081      6.23417470145866
  C   1.18338634311547     12.65326001658253      6.46676599422176
  C   1.02425498909544     10.32444060112479      7.46393332460643
  C   -0.83181493564307     11.19798133197937      5.98914623167682
  H   3.31315573360225      8.28058043425365      8.33343640844668
  H   3.19162320525420      6.07336835110832      9.53267074896213
  H   4.74978887421379      4.23406189667328      8.80679605459071
  H   6.34009093734618      4.66427231907386      6.91776571113736
  H   7.05714372302597      7.47227570744077     11.35586328972721
  H   9.07965370463684      6.35103694950135     10.40051679212479
  H   9.73553412272298      6.84364553925288      8.01260717674598
  H   2.24094100410133     10.07240457608299      2.47756800468115
  H   3.93168134319996      9.25091165774880      0.82032395266370
  H   6.27389288480123      8.74366627747109      1.60629066652236
  H   7.41225548812416      6.32589593094021      5.41579860036822
  H   5.99093867067341      6.95538174691934      4.55563311390719
  H   8.72366016242722      9.58192219289574      6.20998405538398
  H   9.14082023509896      7.87786936259421      5.88262505569764
  H   7.79137923961574      8.42289452224396      3.50026865249447
  H   7.73791957297675     10.00728484954175      4.30699284918810
  H   3.14891764841524     10.62423904533421      9.64429795517855
  H   2.03361159178220     11.02773360596403     10.95749268113290
  H   2.17374585017206      9.34035647150330     10.42204920987867
  H   5.45843109534938     11.22588238309144     12.57674555811834
  H   3.94661763256639     12.11981761883454     12.30972761535137
  H   5.02311200593040     11.78610266914255     10.94206194212754
  H   2.67544343368902      8.63252675921715     12.84205612261725
  H   2.51531656740743     10.33671177324351     13.34131232565691
  H   3.98468920798870      9.41292427755208     13.74525467023917
  H   2.25990562174166     12.70087247942285      6.67899196157890
  H   0.65468879241344     13.07930159110477      7.32971700146900
  H   0.97213162499832     13.28289534327809      5.59292669504734
  H   0.72025222911873      9.28116476430515      7.30055817440606
  H   0.48522708565775     10.70520428864594      8.34107586420888
  H   2.09617374887969     10.34898559993423      7.70137604000093
  H   -1.09177221390995     11.80668442855588      5.11572682489855
  H   -1.34276235357938     11.60959034571606      6.86934152390101
  H   -1.20133823507842     10.18099870747984      5.81134976891860
  H   5.32927817610798     10.13680469773331      9.50060432615304
  H   3.22896620869205     10.83877345775024      5.94746018975139
