80
Coordinates from ORCA-job CAVYIJ-CH3OH_1_2_tpss_d4_lanl2dz_631gpol_Co2.opt
  Br  4.23041241518523     11.12686884618876      7.91933995698739
  O   6.85499453296276     11.15436955182919      6.38669423968188
  Co  5.70937248349415      9.52719604171041      6.72858025859362
  O   5.42192489088051      8.01139561060323     12.35251148468550
  O   0.80131390430987     10.22382280676191      3.63668805683986
  N   7.00025491740854      8.42533841850500      5.68830346486002
  N   4.78210783332440      7.88528528481435      7.09825026665925
  N   7.03135624627201      8.67059923774699      8.50003146690267
  N   4.89570462123143      9.75887228483384      4.59599823539547
  N   5.69349133607186      9.11363657853184     10.34500683261376
  N   2.66371653849280     10.28767200561238      5.00049467692073
  C   6.38871553349275      7.06799285420049      5.48441301423436
  C   5.36154786743858      6.78322409348970      6.54579535220305
  C   3.79900726066571      7.71674748692862      8.01478067154290
  C   3.36654675102504      6.45377195297791      8.41553131438645
  C   3.97140975402800      5.31979904207189      7.86447887293663
  C   4.98392387648964      5.49202869422083      6.91381401226009
  C   8.27710897037441      8.35163509899979      6.46339532030844
  C   7.98228374096981      7.92622410104665      7.87790283952267
  C   6.67239742267385      8.31698635503988      9.76118534068775
  C   7.26613353548480      7.21557896708104     10.42822588107893
  C   8.24479093257967      6.48530175997899      9.76890968481923
  C   8.61679711678492      6.83538126160218      8.46097194865821
  C   7.22162720639469      9.11070611114564      4.37702478457224
  C   5.88666650816383      9.40129165409020      3.73586877188291
  C   3.65477330521068      9.97919396309294      4.07923683578526
  C   3.40001340197990      9.89674473788966      2.68729247520498
  C   4.43944786378078      9.55249355707629      1.83524694321917
  C   5.71117211521862      9.27752229523476      2.36182300642415
  C   5.13137040314499      8.96107246264751     11.62779566521860
  C   4.11990814441775     10.04240002365612     12.04995593617609
  C   2.79979648185450      9.81853009278204     11.26691487895290
  C   4.66935942022873     11.46422150201357     11.78511013959806
  C   3.85111482226243      9.86573604890681     13.55787010447463
  C   1.28093952075237     10.40095131182648      4.75413622225185
  C   0.42387440046911     10.76958714268348      5.97859303866065
  C   0.79520245194666     12.20204206779999      6.44076510589746
  C   0.65354561222726      9.75727885772164      7.12714744022646
  C   -1.05483504299538     10.73225306260669      5.54767691359591
  H   3.38273247060809      8.62716259885969      8.42926784582613
  H   2.57767044382017      6.37302023831567      9.15849925492207
  H   3.66601415850663      4.32146429688823      8.16909174899537
  H   5.47977045559805      4.63643133258139      6.46091490541456
  H   6.93797808731102      6.97456253011701     11.43123597445557
  H   8.71286947946309      5.63935495594731     10.26809192860551
  H   9.37467974806622      6.27827630815131      7.91472834465382
  H   2.39617881323267     10.08824364658157      2.33016430864854
  H   4.25865194104379      9.48327912698118      0.76462560950766
  H   6.53997717977111      8.97547371729539      1.72563750679736
  H   7.17036873049708      6.29685264164896      5.45962209472027
  H   5.89383886175616      7.07818715818873      4.50388135821703
  H   8.71587323433089      9.35665537935747      6.43316507674852
  H   8.97681557424318      7.65698762788807      5.97530031547102
  H   7.84475473679883      8.48590722469337      3.71987250904412
  H   7.76272452945982     10.03760931071717      4.59701394329107
  H   2.92817357169404      9.98625244841410     10.19007925995591
  H   2.04158265374507     10.52807080571801     11.62412444560717
  H   2.41802797303168      8.80161112040660     11.43160616727662
  H   5.62969857014823     11.61721763256685     12.29555243044178
  H   3.95678600309549     12.20256234413367     12.17571931018784
  H   4.79973567499018     11.67552877957230     10.71570339058492
  H   3.46898237413227      8.86269415526747     13.77658951913839
  H   3.10911865970510     10.60719273465619     13.88185116782203
  H   4.76783020606246     10.01111993303110     14.14245804129419
  H   1.84139998299197     12.27484717215025      6.76340529286074
  H   0.16033903242249     12.48501266316187      7.29114684971235
  H   0.62603595842621     12.92598978580542      5.63296468980675
  H   0.45149954268490      8.72969031243441      6.79472066379831
  H   -0.03019191017184      9.98857624791160      7.95491944926024
  H   1.67543148532563      9.80761068429239      7.52360886803820
  H   -1.24304777960149     11.43317691741461      4.72688509812208
  H   -1.68808363808761     11.00919886125087      6.40085563517759
  H   -1.34343590814902      9.73074312473359      5.20647135559911
  H   5.36700563602864      9.88979382881929      9.76106371145192
  H   2.99869940227389     10.44564372533349      5.95577228615901
  C   7.58311321592510     11.74633299476591      7.51657914529915
  H   8.17367256098730     12.58534173192225      7.13490083845736
  H   6.87623415010642     12.06883271246508      8.28634715695471
  H   8.22798259103824     10.95812962456905      7.90545851030941
  H   6.16141244998947     11.80005833904016      6.11902253644424
