47
Coordinates from ORCA-job AYIBUI-CH3OH_0_3_tpss_d4_lanl2dz_631gpol_Fe2.opt
  Fe  -4.55637947488666     -1.53659289363791     -5.40531829867149
  S   -5.64563851248090     -2.96979734760163     -3.83085872127588
  S   -3.63997027587340     -0.26626911378211     -7.02319636561257
  O   -5.96849173083308     -2.78740543791666     -6.88289815626298
  C   -5.82655758128766     -0.35855761019501     -5.09756457466332
  O   -6.64933788293394      0.44125139767032     -4.86953203842800
  N   -3.33806171244549     -0.88560055497401     -3.61043269295319
  N   -2.99253573808138     -2.92581358789262     -5.71028268696098
  C   -5.04945023469714     -2.19887467529433     -2.34954419121474
  C   -5.63583537285599     -2.53951691260899     -1.10918855649319
  H   -6.49200865755197     -3.21139189169012     -1.11031492575946
  C   -5.13814518496606     -2.03455381003163      0.09168445640126
  H   -5.61424381722487     -2.31275032701494      1.03103253074999
  C   -4.03407771472212     -1.16962497623327      0.08841075857125
  H   -3.63658941807374     -0.77125167261717      1.02022088579857
  C   -3.45059578652153     -0.81309844915082     -1.13009895106815
  H   -2.59738179408107     -0.13606339737490     -1.13713460958984
  C   -3.95170874534100     -1.30616015497527     -2.34518279085626
  C   -2.04690777615192     -1.58974025776471     -3.86518063835656
  H   -1.42802624660390     -1.61414768864562     -2.95380675835812
  H   -1.50909507321481     -1.02441230899475     -4.63834381512801
  C   -3.13794366672546      0.58964184425350     -3.65781283868421
  H   -2.87512017327770      0.86047633663423     -4.68573702400381
  H   -2.34054124689166      0.91866592880266     -2.97290174674519
  H   -4.07621020074544      1.07829026553597     -3.38059178491086
  C   -2.23456585294843     -1.28511913502797     -7.41402649542661
  C   -1.30485600748865     -0.88023881285236     -8.39553766022688
  H   -1.47418516044745      0.05759079376566     -8.92179736834748
  C   -0.18583465477207     -1.66294949757702     -8.68485208585696
  H   0.52128913435662     -1.33465446304151     -9.44539361631511
  C   0.02832669284285     -2.86678642173535     -7.99761943376793
  H   0.89957882910877     -3.48181500742185     -8.21532865148038
  C   -0.88844907953547     -3.27823694411006     -7.02473960235942
  H   -0.72142055744859     -4.21462654294117     -6.49389917282819
  C   -2.01483615798906     -2.49486298882502     -6.73501934491594
  C   -2.32563238664133     -3.00019073434874     -4.36215855680619
  H   -3.02296265485150     -3.51499215212416     -3.69012159588340
  H   -1.39409039203343     -3.58172701758946     -4.43137043409279
  C   -3.51975689264284     -4.27933409123529     -6.07483821654856
  H   -4.27131140621474     -4.55632908460133     -5.32906761609926
  H   -2.70724576148767     -5.02034449075707     -6.07973086664113
  H   -3.97979349469398     -4.21831041262996     -7.06219291292854
  C   -6.45677049148824     -2.03211314538749     -8.01520135036005
  H   -6.83364413932145     -1.04793660328947     -7.70578803035032
  H   -5.59566467144822     -1.88865169956971     -8.67090359646194
  H   -7.24319630970242     -2.59736900349606     -8.53430181776317
  H   -6.70172456668362     -2.87796524970476     -6.23702804006381
