42
Coordinates from ORCA-job AYIBUI-oxo_0_1_tpss_d4_lanl2dz_631gpol_Fe2.opt
  Fe  -4.73107231552541     -1.69351059156795     -5.56686685014351
  S   -5.88240780747475     -2.94715687500004     -3.93422908036285
  S   -3.60427873317555     -0.26835500724422     -6.96878709802185
  O   -5.55564793774814     -2.49428055774337     -6.75704492705195
  C   -6.07584836271008     -0.50791250762486     -5.32909906178567
  O   -6.94184188077107      0.24560015978354     -5.20211679907055
  N   -3.61626151256918     -0.88879499474778     -3.80709958830478
  N   -3.12584418910178     -3.02492819994158     -5.74353954245436
  C   -5.15211620687109     -2.31281565620831     -2.45924864688015
  C   -5.60172064724118     -2.76559980378631     -1.19666406871979
  H   -6.42352796705585     -3.47838409720665     -1.16019695217210
  C   -5.00811353315877     -2.31311419708631     -0.01958824045658
  H   -5.37318178648024     -2.67511027397541      0.94048400735867
  C   -3.94722243459918     -1.39585730088828     -0.07016170129217
  H   -3.47576561456042     -1.04062009772888      0.84406745082041
  C   -3.49961317470056     -0.93411203252468     -1.31032254348814
  H   -2.67595377671099     -0.22292404289107     -1.34830908302840
  C   -4.10142906927248     -1.37919072212918     -2.49784931612060
  C   -2.25043180635470     -1.45669754897395     -4.07229755923462
  H   -1.61114290108387     -1.32868859848726     -3.18620683505699
  H   -1.81670561821534     -0.89990425236324     -4.91203141942850
  C   -3.55192566914705      0.60660189180474     -3.78573301698554
  H   -3.28821133033426      0.95292218672817     -4.78942291661523
  H   -2.79951166965090      0.95974933387589     -3.06730655338725
  H   -4.53372899350067      0.99156801826416     -3.49560833110084
  C   -2.34274580384114     -1.40328241884539     -7.46497453264599
  C   -1.44172550499285     -1.05524504917404     -8.49563999130205
  H   -1.55859583897503     -0.09243350617244     -8.98970280263888
  C   -0.42494952240955     -1.92851532217136     -8.88015095013689
  H   0.25506388601461     -1.64414118098329     -9.68179059258176
  C   -0.28136341837438     -3.16878796249076     -8.24078313910154
  H   0.50931732184124     -3.85647895712826     -8.53440371236455
  C   -1.16840215296703     -3.52476057661224     -7.22102552355428
  H   -1.05228479923327     -4.48748169098064     -6.72655804611867
  C   -2.20061433181241     -2.65449710605392     -6.83992114363149
  C   -2.40917734244284     -2.92616700519474     -4.42575737265569
  H   -3.02813631470097     -3.43566418890451     -3.67682367285158
  H   -1.43357766443384     -3.42893569602426     -4.49145979587106
  C   -3.64533363111862     -4.41396390194722     -5.94858160137389
  H   -4.38136241051287     -4.61449761368876     -5.16454608192786
  H   -2.82875111220216     -5.14564286929514     -5.89138200514532
  H   -4.12815642182520     -4.44928918667009     -6.92722036311495
