47
Coordinates from ORCA-job AYIBUI-CH3OH_0_5_tpss_d4_lanl2dz_631gpol_Fe2.opt
  Fe  -4.65376970368593     -1.43517778377810     -5.46890305030352
  S   -5.99633478183389     -2.62319928113728     -3.83067266555337
  S   -3.40436246175304     -0.14665381557448     -7.07702820886101
  O   -5.75657333152775     -2.69343907331959     -7.00367138345539
  C   -6.04442872396082      0.03206981676384     -5.34701120078349
  O   -6.71806632422057      0.91943261696788     -5.02787409630600
  N   -3.48719236153887     -0.78039268539727     -3.62148652582800
  N   -2.92856583861521     -2.90576444630297     -5.67020461746261
  C   -5.14228414231534     -2.14690301443809     -2.34698038576278
  C   -5.61113728424549     -2.62290842842624     -1.10106748791092
  H   -6.49520532513196     -3.25726239276411     -1.09084076524539
  C   -4.96291913396985     -2.29639689738085      0.09039498659354
  H   -5.34717036572483     -2.67915478322056      1.03491361239013
  C   -3.82417341288307     -1.47826817481091      0.07108773946594
  H   -3.31134941001187     -1.21646181685186      0.99494852454107
  C   -3.35228993187659     -0.99392104606802     -1.15201716376804
  H   -2.47029377029363     -0.35424306465867     -1.17220202719419
  C   -4.00027373348937     -1.31407203747229     -2.35463497856495
  C   -2.13734488944294     -1.34697012048837     -3.92761031863855
  H   -1.46710632382004     -1.24466210356818     -3.05885234945960
  H   -1.72270252807623     -0.76801995125278     -4.76291350225149
  C   -3.41955832924978      0.70819057964451     -3.58347354486823
  H   -3.16197080600264      1.05775927436761     -4.58965631000207
  H   -2.66492174233825      1.06246933617308     -2.86303921101268
  H   -4.40005549855680      1.09591725564950     -3.29302319789504
  C   -2.12082169990732     -1.32859727219064     -7.42871462533723
  C   -1.18088656833967     -1.03343540961500     -8.44362122695528
  H   -1.29225467822142     -0.09932677482525     -8.99100166447580
  C   -0.13316049172442     -1.90423973764490     -8.74356771741504
  H   0.57281097172416     -1.64670899090147     -9.53221970258267
  C   0.01055158676009     -3.10353020234959     -8.03121209273349
  H   0.82645687264613     -3.78931476175758     -8.25311547022874
  C   -0.91038575223456     -3.41287563305019     -7.02687217945128
  H   -0.80170063714231     -4.34278179607360     -6.46953381242704
  C   -1.97444733816962     -2.54739927190452     -6.72749746967618
  C   -2.28453771601910     -2.81036880637720     -4.32497041944631
  H   -2.94082673017991     -3.32280358128312     -3.60852625647206
  H   -1.30534259548364     -3.31528984794835     -4.32694327971339
  C   -3.47235252285761     -4.27698891925518     -5.87471879257822
  H   -4.26518363908763     -4.43455958586992     -5.13394718363653
  H   -2.69800408236219     -5.05020488023296     -5.74886380512294
  H   -3.89192646590925     -4.33416115133853     -6.88155120945192
  C   -6.46259525637746     -1.94717136044912     -8.02589884210365
  H   -7.26779095324282     -1.34276124468803     -7.58674818008110
  H   -5.71165628479615     -1.28963745365787     -8.47023999893798
  H   -6.86828463024967     -2.63641234204822     -8.77811470676361
  H   -6.40521123426052     -3.22365893919441     -6.49579323627234
