41
Coordinates from ORCA-job AYIBUI_0_1_tpss_d4_lanl2dz_631gpol_Fe2.opt
  Fe  -4.61948876710939     -1.64430145971940     -5.36131495184455
  S   -5.74563043064250     -3.09369255125589     -3.89680640215628
  S   -4.05721534949686     -0.63967629967680     -7.26936153658869
  C   -5.95774290422096     -0.54753646401802     -5.07620926307627
  O   -6.84786524010229      0.18095921235971     -4.87475512208682
  N   -3.49314893340312     -1.02302309576270     -3.76495549776303
  N   -3.11720367253061     -3.03528251945979     -5.75430456583887
  C   -5.12110832006534     -2.34533642169419     -2.41980355228456
  C   -5.64773808041519     -2.69602338183524     -1.15505879749094
  H   -6.46324427722909     -3.41568646480221     -1.11593601654337
  C   -5.14678317742846     -2.13219263703944      0.01730510934180
  H   -5.57646962517761     -2.41616984568796      0.97694416112646
  C   -4.10025182992642     -1.19818133570010     -0.03584104003811
  H   -3.70622214299587     -0.75226489564732      0.87532387476106
  C   -3.56768048098055     -0.83756011640996     -1.27636192761852
  H   -2.75415394241188     -0.11495989362778     -1.32056086095408
  C   -4.07660815726689     -1.39767400822067     -2.45699687841152
  C   -2.16900610165357     -1.71755089444119     -3.95945354809422
  H   -1.59353109538569     -1.68966068599438     -3.02385418766250
  H   -1.61930135175543     -1.16891466561527     -4.73600626598495
  C   -3.29458696110920      0.45796341790580     -3.87798258090768
  H   -3.04515056277055      0.68241355570602     -4.91915328525062
  H   -2.48486176220193      0.80000957814297     -3.21699234321427
  H   -4.22737977948427      0.95663495800406     -3.60460890622971
  C   -2.54658329052898     -1.51342923131853     -7.61365144420821
  C   -1.69329067031913     -1.12599296458516     -8.66700491875319
  H   -1.97858609164515     -0.28095113778119     -9.29079030212354
  C   -0.49811821697701     -1.81015114434834     -8.90007050518200
  H   0.15439700078835     -1.49571351467015     -9.71320263029682
  C   -0.13734970134376     -2.89783287155731     -8.09131917564847
  H   0.79234333677353     -3.43492713076533     -8.26964712401804
  C   -0.98323075548382     -3.29833991250211     -7.05053906221827
  H   -0.70865132457585     -4.15532671875640     -6.43640742222393
  C   -2.17617023610869     -2.60412292672207     -6.81117654705600
  C   -2.43233991205440     -3.13973542448151     -4.42503110397763
  H   -3.12431001897884     -3.65043529436924     -3.74470210841656
  H   -1.49901034200687     -3.71625477509433     -4.49505375549488
  C   -3.70774158206386     -4.34824971887710     -6.17224374932583
  H   -4.39181892607573     -4.68529960608749     -5.38762749931967
  H   -2.91342870611004     -5.09098797198208     -6.33407836951479
  H   -4.25343761752595     -4.18674274161186     -7.10760989741175
