43
Coordinates from ORCA-job AYIBUI-OH_0_4_tpss_d4_lanl2dz_631gpol_Fe2.opt
  Fe  -4.75916834230080     -1.66188341920390     -5.52604715194353
  S   -5.86264185745811     -2.99932669416980     -3.92369361125910
  S   -3.62389283914570     -0.37655981369240     -7.03563168416590
  O   -5.83340964175427     -2.44705412671881     -6.74310088104938
  C   -6.26619572424830     -0.21471256613180     -5.11554428019288
  O   -7.34660733261932      0.16811828199358     -5.23942006565867
  N   -3.57629224422520     -0.94658545964474     -3.80348351227868
  N   -2.99981758877503     -3.09678820676208     -5.73628576283453
  C   -5.16378865965614     -2.32035857821359     -2.45320890105043
  C   -5.64376331890551     -2.72862560530564     -1.18563163864704
  H   -6.48295763149226     -3.42071394311410     -1.14682948758496
  C   -5.05861754903219     -2.26362796857590     -0.00935372650269
  H   -5.44969122417166     -2.59261356721136      0.95243066229066
  C   -3.97259169524068     -1.37603357562467     -0.06228237886512
  H   -3.50768644462451     -1.01114973495866      0.85149369365236
  C   -3.49423533875927     -0.95444215406477     -1.30548408831345
  H   -2.65330353396548     -0.26376150386077     -1.34673469043402
  C   -4.09004612934579     -1.41046114486309     -2.49145430914823
  C   -2.20558693265563     -1.51379819568059     -4.04802926148371
  H   -1.58291553743553     -1.37655524042417     -3.15208919499665
  H   -1.76136085143406     -0.95309334906030     -4.88033364001619
  C   -3.50949054787269      0.54891757229843     -3.81049709797948
  H   -3.23205203492862      0.87941866048614     -4.81594964885586
  H   -2.76927538693272      0.91141849046523     -3.08395776922573
  H   -4.49548121762010      0.93995078242043     -3.54600327625158
  C   -2.32278558745511     -1.49509809557297     -7.50918152519338
  C   -1.45832881252662     -1.14344236624773     -8.56817250860408
  H   -1.63742975802311     -0.21293922041046     -9.10381653470635
  C   -0.38993197393869     -1.96795744772251     -8.92388840074940
  H   0.26379897838176     -1.67941358427607     -9.74564096126835
  C   -0.16050083674658     -3.16251252570813     -8.22630405496374
  H   0.67224460484725     -3.80988984963139     -8.49502575937746
  C   -1.01458082678496     -3.52323869207099     -7.17981823957140
  H   -0.84001514531911     -4.45266009923684     -6.63910599114840
  C   -2.09725246838437     -2.70552228624982     -6.82244526763844
  C   -2.32996007246397     -2.98877858608614     -4.41011318053713
  H   -2.96565178377472     -3.50236821241438     -3.67742535411314
  H   -1.33916875521458     -3.47056087479208     -4.42247542540166
  C   -3.54996606954411     -4.46162222869923     -5.96455332456715
  H   -4.28470606610724     -4.66280271734316     -5.17818887801442
  H   -2.75892946411803     -5.22736239846262     -5.94410821700318
  H   -4.05369917104774     -4.46696455427284     -6.93399489558208
  H   -5.65450718718018     -2.00835520118509     -7.60313977876493
