52
Coordinates from ORCA-job AYODAU-CH3OH_1_2_tpss_d4_lanl2dz_631gpol_Co2.opt
  I   32.33436481798592      8.43498756592889     15.63854877011290
  Co  33.40571395526050      5.99751648532140     15.38239702982169
  O   32.38071385203683      6.05746956560659     13.30601668642949
  N   34.94545693571953      6.88783471915240     14.65552876627212
  N   34.50473817490317      6.15494137419001     17.17513739171003
  N   34.08663207611154      4.19650788889634     14.95320593287252
  N   31.92407282895613      5.01680866058487     16.18820016858619
  C   35.12468315125224      7.24498911358748     13.37386184054658
  H   34.31600641518308      6.98092634506463     12.69843477232872
  C   36.27933682032921      7.92777639212325     12.94710152031931
  H   36.37409925381733      8.19846132783695     11.89878554310092
  C   37.26690565098481      8.25783376938956     13.86594552260676
  H   38.16012061226647      8.79693432544232     13.55583445325247
  C   37.09967103202342      7.89504198443786     15.22433085690783
  C   35.91266118782244      7.19933538757356     15.57244348132487
  C   38.04865299586508      8.19578164857259     16.26133498572890
  H   38.95773133433091      8.73029905884492     15.99237717606412
  C   37.81779621463572      7.83139523700342     17.56364135509364
  H   38.54221862779183      8.07477130695160     18.33871121328292
  C   36.61946154645243      7.13123553575260     17.93674537295336
  C   35.67298332460035      6.81181921777613     16.92821764335624
  C   36.30540080912994      6.73571316470833     19.26022067354514
  H   36.99648856485019      6.95975827250108     20.07083814761910
  C   35.11134446427786      6.07094751995589     19.50546712938971
  H   34.83971594343212      5.75931967695052     20.51099675207886
  C   34.23538651310623      5.79799570227255     18.43371856059092
  H   33.29013125273641      5.28452889567669     18.59571336346747
  C   35.20499267761461      3.82771282614231     14.31093084699017
  H   35.83460219310231      4.63043112997787     13.93918439732479
  C   35.55260962579151      2.47633443876766     14.11637424726293
  H   36.46985345549538      2.23936639770481     13.58324973539944
  C   34.72660823847200      1.47036023288563     14.60182868696957
  H   34.98016369359620      0.42145404444839     14.46071856000513
  C   33.54013373924379      1.82600258164820     15.28905523162522
  C   33.26870299891185      3.21035796611292     15.43443613604101
  C   32.60346357832080      0.88672418594057     15.84257733724760
  H   32.80625576259089     -0.17692417280654     15.73317731340291
  C   31.47604481394619      1.31384508949012     16.49856067537407
  H   30.77678665523014      0.59147933116470     16.91537409543538
  C   31.18696419682209      2.71387502659443     16.65426459186795
  C   32.09596081769357      3.65525971578059     16.10762871506189
  C   30.04874503788675      3.22571971551015     17.32352765944011
  H   29.32035838026127      2.54417948518201     17.75897151076584
  C   29.88566078983574      4.60134901798382     17.41283967892777
  H   29.02634073375428      5.03315794943410     17.91950194953258
  C   30.83586956884765      5.46890412108092     16.83705577918820
  H   30.72955254852067      6.54935293700315     16.88523793309540
  C   31.44290304766887      5.04324147075020     12.88627268711111
  H   32.02592378194174      4.13160398457902     12.72993122717666
  H   30.67767041054609      4.86367692800470     13.65319926117825
  H   30.96359197799156      5.33466029697718     11.94338894169151
  H   31.88577292005002      6.88921515754029     13.50686769252057
