47
Coordinates from ORCA-job AYODAU-oxo_1_2_tpss_d4_lanl2dz_631gpol_Co2.opt
  I   32.30909173988469      8.40411109200256     15.63574649705512
  Co  33.29743560450142      6.01601296990418     15.25628181135705
  O   32.46917323633203      5.97019097860715     13.71636639741878
  N   34.79412853796338      6.93164599858408     14.47334983297322
  N   34.38444044764204      6.18218941220794     16.95294949829065
  N   34.06228822228798      4.23068910350604     14.94603408800920
  N   31.81899175790277      5.02213925797335     16.07380481683137
  C   34.89753930063721      7.31978597712291     13.19828228415846
  H   34.03183916462488      7.07659569885660     12.58476665637899
  C   36.04762894686678      7.99825791735738     12.74376662369201
  H   36.10056636806037      8.30177420352698     11.70147728369843
  C   37.08681776363722      8.28114473233810     13.62324587972437
  H   37.97369842746426      8.81134159600742     13.28143121291275
  C   36.98098953522542      7.88625696670475     14.98102302788590
  C   35.79723779931420      7.20566482317487     15.35427794824750
  C   37.96532563007197      8.13234416163891     16.00049410931878
  H   38.88087051846212      8.65166983398873     15.72500218766729
  C   37.75980490863915      7.73623202788108     17.29997884397824
  H   38.51274432212642      7.94046789361928     18.05871462217566
  C   36.55193225881012      7.06187678852437     17.69434131533132
  C   35.57766566438789      6.79560921849917     16.70076914022714
  C   36.24351206757299      6.64821333475087     19.01387153257018
  H   36.95253896272185      6.82812205862924     19.81979902400575
  C   35.02743965228942      6.02458289272651     19.26428826470421
  H   34.75982028117556      5.70490960675270     20.26803781364139
  C   34.11766041271474      5.80825188269956     18.20825094566555
  H   33.15359552851246      5.33639574028122     18.37650644615427
  C   35.21265075973833      3.89506406722565     14.35400418982614
  H   35.84682477241522      4.71066371049259     14.02161212804191
  C   35.58147298860249      2.54869215347960     14.15794081604409
  H   36.52652723371894      2.32640346573483     13.66943426198742
  C   34.73463488338005      1.53189935555172     14.57884769601372
  H   35.00099711904585      0.48750290597512     14.42773358391676
  C   33.50724346213060      1.86409117737651     15.20258391111152
  C   33.22034372004990      3.24368345428956     15.36250972760655
  C   32.54015818111399      0.90928185830940     15.66961095898172
  H   32.75405987817137     -0.15073516778674     15.54832682516277
  C   31.36483685979904      1.31889705920874     16.24836329078159
  H   30.63764484070586      0.58532913351762     16.59057084109032
  C   31.05784453133895      2.71423241318073     16.41204283235863
  C   32.00425377885495      3.67127868725000     15.96783551082348
  C   29.86097100119505      3.21067143428077     16.98443369742205
  H   29.09872404604674      2.51801866736849     17.33601991175496
  C   29.67687369400673      4.58232721669373     17.07611139149332
  H   28.76783944440363      5.00109427836355     17.49972220219214
  C   30.67391068117469      5.46478486380503     16.60887558724911
  H   30.55241106427696      6.54334309781694     16.65446253206752
