46
Coordinates from ORCA-job AYODAU_1_4_tpss_d4_lanl2dz_631gpol_Co2.opt
  I   31.97146583137694      8.15792882635202     14.89658876503134
  Co  33.34711275378640      5.98930980470545     15.44913832417883
  N   35.05948538207549      6.87105632539551     14.52621501046440
  N   34.54078964178701      6.35639556383825     17.09768932937151
  N   33.93419905854529      4.04064765421429     14.80044280162695
  N   31.77493103875983      4.82713476097534     16.22551156907349
  C   35.25852285917480      7.16557791685600     13.23531732292141
  H   34.48419571497091      6.83817692123249     12.54494411344780
  C   36.38854186279247      7.87733391266451     12.78574974038020
  H   36.49994243639037      8.08876222144509     11.72544277628550
  C   37.33535272137968      8.30659197434188     13.70710289025229
  H   38.21448075311176      8.86207774334533     13.38547743819139
  C   37.14352667571287      8.02835554948211     15.08231469399668
  C   35.97487623177448      7.30186367857035     15.43811180353526
  C   38.04914071844189      8.44020245946807     16.11955109278011
  H   38.94410131711408      8.99238727767292     15.83915653805481
  C   37.79475779844566      8.15417156444800     17.43653146288563
  H   38.48596597145518      8.47534654698720     18.21337122956482
  C   36.60939526239925      7.43969238053461     17.82453245482975
  C   35.70171880610138      7.01685955845299     16.81694412179165
  C   36.27475351525449      7.13409640676297     19.16622820040770
  H   36.94099426231139      7.43950987417187     19.97110463606779
  C   35.09544717024787      6.45326656657319     19.43994764860719
  H   34.81130469913366      6.20839850599756     20.45997571772275
  C   34.25010869876476      6.08309319578739     18.37627261706877
  H   33.31289246593153      5.56051303493393     18.55263344758179
  C   35.01584122207633      3.66915707203045     14.10572101393370
  H   35.68273172775319      4.47012695222179     13.79797769020997
  C   35.28806528281838      2.32588414805463     13.77922050887809
  H   36.18082913514128      2.08277071617744     13.20903475453331
  C   34.40611682855690      1.33707408132469     14.19089378181534
  H   34.58820507812302      0.29124735935299     13.94969388433662
  C   33.25308714904881      1.69406630066320     14.93336212709269
  C   33.06345197834144      3.07400597530481     15.21910883242440
  C   32.28184010324217      0.74110992804524     15.39475419889955
  H   32.43909896238183     -0.31173287590916     15.16873192799894
  C   31.17577990890774      1.14375480729962     16.09752924021972
  H   30.44203576581799      0.41497006732183     16.43649697283335
  C   30.95731589514322      2.53065345491625     16.40187450326832
  C   31.90875081913031      3.49350690927557     15.96948771533522
  C   29.83198495417418      3.00845109680456     17.11946500655570
  H   29.07881216907198      2.30421398649026     17.46862028675964
  C   29.70032897208416      4.36871184305722     17.36033400540584
  H   28.84415027860943      4.76558095621092     17.89935340510611
  C   30.69412215305101      5.25243801685732     16.89234224344426
  H   30.62194796928522      6.32865897929075     17.03510215482848
