48
Coordinates from ORCA-job AYODAU-OH_1_3_tpss_d4_lanl2dz_631gpol_Co2.opt
  I   32.35472976740534      8.60005010824417     16.20022366637852
  Co  33.24553783156266      6.12651076964233     15.13734813684388
  O   32.46101178861750      6.21531078919920     13.55311840352121
  N   34.77191192524473      7.09380922873727     14.38351505972127
  N   34.38134454289563      6.12991515514511     16.79151152486579
  N   34.11600936969815      4.10858749038536     14.91675834095913
  N   31.77538266435348      5.01538542542925     15.90430631812217
  C   34.86882654664990      7.61511220998760     13.15726455593769
  H   34.01364227287357      7.44406034524553     12.50862219992367
  C   36.00951320807395      8.34440920929809     12.76115259267473
  H   36.04892216478216      8.75510528501484     11.75573849822100
  C   37.05873922800427      8.53532319726940     13.65264829454644
  H   37.94111709372588      9.10073083516378     13.35879938952549
  C   36.96693041524107      7.99933231711984     14.96126626579214
  C   35.78703414439692      7.28238761767580     15.27474790408255
  C   37.96368700808702      8.14142598473016     15.98830169546383
  H   38.87619138108455      8.68713052526172     15.75625778351189
  C   37.77302256099599      7.61611343098111     17.24297636092483
  H   38.53382355916356      7.74211105803722     18.01075684193964
  C   36.56672380550849      6.90970965716647     17.58187954731700
  C   35.58169882569350      6.74694560619139     16.57626783374782
  C   36.27089043596838      6.37474217838150     18.85899426049345
  H   36.98990686403561      6.47370478729775     19.66997486387104
  C   35.05235799997092      5.73861150421417     19.06419876116957
  H   34.79259893273553      5.32694438179681     20.03584924749326
  C   34.12564582361793      5.63682417389889     18.00842420039903
  H   33.15478179091225      5.17159539800202     18.14842478152947
  C   35.27351119275964      3.70445795081627     14.39521176417363
  H   35.92488642294025      4.48406139500378     14.00554167667797
  C   35.64500442736979      2.34327176359106     14.34626245123250
  H   36.59966380120923      2.06108875874545     13.90955384863528
  C   34.77952474463746      1.38654138106125     14.85827724164983
  H   35.04111200288013      0.33005749911024     14.83546194860096
  C   33.53826304568499      1.78943247245266     15.41191459031920
  C   33.25511960754541      3.18300805353269     15.41074670092304
  C   32.56987509024775      0.88087713116577     15.95832090062497
  H   32.79369537056603     -0.18421170747201     15.95879553166429
  C   31.38151241437103      1.34118128391822     16.46508237520467
  H   30.65031944427962      0.64590199811105     16.87291250790694
  C   31.06378488042333      2.74289726165564     16.46433611967206
  C   32.00861127923793      3.66506748430360     15.93761574210323
  C   29.84188644728985      3.26730146820267     16.95473036464159
  H   29.09199661118203      2.59259340917070     17.36412132968372
  C   29.61512129707145      4.63404628802797     16.89824795943837
  H   28.68693326838778      5.06905819841680     17.25910989818300
  C   30.60489023173120      5.48391011781357     16.36421936327761
  H   30.47900797106102      6.56449983782879     16.31616492186301
  H   31.55841849782375      5.83116928502680     13.59656543454685
