71
Coordinates from ORCA-job BADDER-oxo_1_2_tpss_d4_lanl2dz_631gpol_Mn2.opt
  Mn  -0.49024171341184      0.79224984926328      5.67475825173938
  S   -0.79698654474555     -0.25312174760316      1.35502506405808
  N   -0.30952784420242      2.40433033456040      6.80914198891207
  N   0.63973644390333      5.17603372460225      7.47982115802986
  N   1.48490429312604      0.82014149621861      5.90409988645538
  N   -0.32544864352945     -0.31667106655794      4.13286897802992
  C   -1.49724593131305      2.98769285314798      7.35802460995578
  C   -2.09447861897715      4.11366036209503      6.77465047682448
  H   -1.61871279892903      4.62649050984697      5.94692642024432
  C   -3.32595025289451      4.56040830481645      7.26620685197798
  H   -3.79589263421485      5.42730051516654      6.80611217243377
  C   -3.94496993204984      3.90232006233879      8.33584661888765
  H   -4.89936569275269      4.25937403370978      8.71792176750289
  C   -3.33486937885725      2.77843754757697      8.91258333354309
  H   -3.80999288686502      2.26328966055164      9.74534379215994
  C   -2.11864552528165      2.30228018796884      8.41420712964792
  H   -1.65120928518307      1.40743246637104      8.81833948643612
  C   0.88090114476126      6.25971801151806      8.23530620624656
  H   0.40207207370585      7.18083041068534      7.90430505420815
  C   1.68855703075989      6.24476411691680      9.38201975292800
  H   1.84115357011769      7.15556437437425      9.95648735958640
  C   2.28491702285496      5.03938394904127      9.76430884750257
  H   2.91177364964862      4.98249666528901     10.65167080180822
  C   2.05557079483609      3.89913945287593      8.98531279983549
  H   2.48569004901800      2.93715493818385      9.25683720394833
  C   1.22394931097504      4.01863845550196      7.85951047984558
  C   0.90852930478874      2.82047700210795      7.03798037839443
  C   1.96328867178285      1.96025572462323      6.48518231695841
  C   3.33283907675776      2.24338592473401      6.51938222869787
  H   3.68274269012424      3.18253377036132      6.93732973975826
  C   4.22580120502436      1.30187549693467      5.99539156204989
  H   5.29561377015114      1.49707812535845      6.01051795440355
  C   3.72729194954142      0.11148016754647      5.45540655027501
  H   4.39229639117241     -0.64828068721195      5.05325622371861
  C   2.34314541918661     -0.08927777851635      5.41294757833802
  H   1.88665167859168     -0.96630238014828      4.96343019300243
  C   -0.55257826853480     -0.29406335506269      2.94836333856369
  N   -0.42160484040524      2.37647337370706      4.22950057394807
  N   -2.58560520579254      4.89126191664002      3.27554153511430
  N   -2.40651434969404      1.06811694639541      5.25213937863551
  O   -0.81406947700084     -0.19475213388887      6.90465041928794
  C   0.79222517853077      3.03437277059975      3.88416890840108
  C   1.04066098914045      4.33695712151481      4.34943313888681
  H   0.28413454052087      4.86749782541275      4.92033165946945
  C   2.29157584883045      4.92162213505898      4.12099385494201
  H   2.48608637598482      5.92537447087809      4.49417245676535
  C   3.28214212652056      4.22089662201832      3.42257800648300
  H   4.25166955580945      4.68055989283135      3.24052050446135
  C   3.01966632582902      2.92460507302091      2.95047132306991
  H   3.78194469147121      2.38040595266252      2.39609033930836
  C   1.78333679506971      2.31974734416118      3.18920262067588
  H   1.57022738364510      1.31440078288781      2.83611509974249
  C   -2.74401746294996      5.94364837122378      2.45178502277822
  H   -3.39633611621023      6.73602392257509      2.81816888744555
  C   -2.13162960939370      6.04229064185356      1.19513055792154
  H   -2.30592090313702      6.91450559146795      0.56903433737695
  C   -1.30872510299694      4.99481037313438      0.76474641005880
  H   -0.82864128397666      5.02844994703774     -0.21097911468164
  C   -1.11458651712514      3.89820635329226      1.61010737587785
  H   -0.49009025619384      3.05742361305552      1.31878480070345
  C   -1.77091377767899      3.90059926972010      2.85011600194980
  C   -1.59012041604768      2.77862689551687      3.81312719425196
  C   -2.73771770158884      2.04185211452836      4.35364230285850
  C   -4.06676027697885      2.27598790271312      3.98130724435685
  H   -4.29190871720996      3.06520565892583      3.27230534431462
  C   -5.07619719237260      1.49695297821828      4.55154780944356
  H   -6.11586009219325      1.66022695669090      4.27780508913037
  C   -4.72689213581884      0.50462405841712      5.47384612268535
  H   -5.48040216680147     -0.12500599098962      5.93980041649329
  C   -3.38126275057852      0.31646946125907      5.79847053322036
  H   -3.03990304829299     -0.43333969172789      6.50601928771389
