72
Coordinates from ORCA-job BADDER-OH_1_5_tpss_d4_lanl2dz_631gpol_Mn2.opt
  Mn  -0.58905217815699      0.74990015514208      5.46831522080244
  S   -1.44661870226318      0.13304143417339      1.35497944821940
  N   -0.33223165778959      2.46748405578285      6.90101618100663
  N   0.69253666875996      5.11741751922633      7.65108917117907
  N   1.49642808208849      0.84295178918130      5.89146061967684
  N   -0.28877811231690     -0.51311425833998      3.85149666094981
  C   -1.43449999013529      3.09293087708359      7.54987115845585
  C   -2.38692845571185      3.79905463619667      6.79754472282622
  H   -2.23413992330796      3.97616909544869      5.73704204300419
  C   -3.51170787595433      4.32546024260654      7.43778990262160
  H   -4.23722998226486      4.88979520993052      6.85482361651072
  C   -3.70603250708765      4.13337247191846      8.81339690180049
  H   -4.58992484000458      4.53737732860986      9.30263371120186
  C   -2.75550227196934      3.42120614923710      9.55654217658756
  H   -2.89746704303892      3.26684575316141     10.62456495654449
  C   -1.61635101236385      2.90315872477575      8.93132019506354
  H   -0.87413259194500      2.34506431630737      9.50039076642977
  C   0.95180020308119      6.19403132160500      8.40877225255502
  H   0.48565045933862      7.12377219553721      8.08344673795142
  C   1.76098986448273      6.16190004631082      9.55538717063343
  H   1.92346588182458      7.06661234950268     10.13680977190174
  C   2.34571189618980      4.94802105120442      9.92770526981797
  H   2.97568884415100      4.87965220209052     10.81220224475636
  C   2.10211225959976      3.81506183028648      9.14090158235451
  H   2.52927476014081      2.84808455518090      9.40076059387918
  C   1.26565455836669      3.95131153086848      8.02269853103678
  C   0.90032815266240      2.78384315711660      7.16692433313291
  C   1.95165026294448      1.93858098270410      6.55119939705695
  C   3.31955737046588      2.22795624495947      6.61786784817300
  H   3.66199900974358      3.13769382849927      7.10163616908195
  C   4.22787072102886      1.32977197245128      6.04232735352264
  H   5.29559767480445      1.53344174719349      6.08484630576995
  C   3.74797584923214      0.17541318757186      5.41901166299397
  H   4.42282707123659     -0.55308051249837      4.97719557157910
  C   2.36310781674334     -0.02375962520167      5.34573789790446
  H   1.91385999522653     -0.86739069727087      4.82691581526640
  C   -0.77260384953864     -0.29092233907443      2.76902345852365
  N   -0.51558508275855      2.28731605451679      4.10121921255864
  N   -2.65216514793428      4.73828031505631      3.04882095960056
  N   -2.59592713419656      1.03527055472072      5.01866598456694
  O   -0.95272261022117     -0.45612673591201      6.75306981089869
  C   0.70305746934910      2.98862313767205      3.84967868236418
  C   0.88668873619317      4.27027602952663      4.39279888321512
  H   0.08862951775855      4.74412735234472      4.95879604332223
  C   2.12575386719081      4.90165625178712      4.23866873483747
  H   2.27600279325565      5.89046754014920      4.66758298444210
  C   3.16293266009802      4.26512689031323      3.54459880751843
  H   4.12323362598037      4.76275866378612      3.42293943884341
  C   2.96332840772850      2.98578829801971      3.00282527385899
  H   3.76486268752294      2.49214795649542      2.45649373647342
  C   1.73582229164884      2.33516287018988      3.16042784078410
  H   1.56047790169261      1.33927098170999      2.76059979597665
  C   -2.77664722254549      5.84483282003284      2.29332227042866
  H   -3.48212147293822      6.59059864532004      2.65857860511370
  C   -2.06516795836148      6.04917355731495      1.10360298370689
  H   -2.21492097411639      6.95916433681478      0.52681811902813
  C   -1.17495041132729      5.05785796030477      0.67235659886433
  H   -0.61700272339026      5.17582362597112     -0.25413742353859
  C   -1.01504931395397      3.90749713978344      1.45049143489139
  H   -0.34471825810515      3.10460328659501      1.15692897456705
  C   -1.77355486532897      3.80325769577789      2.62475782611010
  C   -1.65015291686193      2.64927958601606      3.55639271596942
  C   -2.84394769897483      1.91881365947025      4.01221356848083
  C   -4.12696180010251      2.07533506087795      3.47784219070337
  H   -4.29699281752060      2.78793016424369      2.67818614686763
  C   -5.16604632102530      1.29430956550474      3.99301012321136
  H   -6.17256785379598      1.39486394983857      3.59351833556619
  C   -4.89527420113877      0.37405373529480      5.01295685516800
  H   -5.67819533164725     -0.25454509875523      5.42894563772705
  C   -3.58891287218313      0.26788559266034      5.49984402311538
  H   -3.29277431065904     -0.43063415851636      6.27857387706702
  H   -0.97482706759437     -0.03251781440516      7.63826352691850
