70
Coordinates from ORCA-job BADDER_1_6_tpss_d4_lanl2dz_631gpol_Mn2.opt
  Mn  -0.37487260570870      0.71883390639791      5.25283181972812
  S   1.23565872010798     -3.49834977153480      4.55177994065415
  N   -0.14667674591997      2.16273582741719      6.87492864905388
  N   2.01732100932429      4.92993178445233      7.16625259497534
  N   1.80760501079522      1.02764913029064      5.50958637493971
  N   -0.33422138739066     -1.22109555666266      5.11091307884823
  C   -1.35464139213335      2.74873442256793      7.34981570330873
  C   -1.76750567405170      4.02466186204633      6.93058143457472
  H   -1.11800278164230      4.62673868776202      6.30107736421399
  C   -3.03293996579617      4.49377275005194      7.29384581151245
  H   -3.36158011299905      5.46570294886077      6.93391412705718
  C   -3.87436723357028      3.71102082185274      8.09494558408463
  H   -4.85656587454239      4.08260201933963      8.38011287164209
  C   -3.45249331465045      2.44265281549495      8.52237255993638
  H   -4.10235889144742      1.83132117741217      9.14573096542204
  C   -2.20419062554221      1.94933207856864      8.13428394464019
  H   -1.87292588651438      0.95626074333378      8.43424334255698
  C   2.23977459534490      6.06941027612984      7.84565158066936
  H   2.84196588260800      6.81703046747928      7.32953244794655
  C   1.75365705982203      6.31020495231760      9.13782583466471
  H   1.97585402793172      7.24846519365308      9.64113464810668
  C   0.99304753316119      5.31485951895353      9.76218152100137
  H   0.60993580224023      5.45638322225451     10.77055427277885
  C   0.73210047876421      4.13124299443220      9.06689838937398
  H   0.13972142261532      3.33662233760547      9.51325719745727
  C   1.26079367564192      3.98709114683981      7.77274401947568
  C   1.02269200530488      2.74174190364273      6.98770638239177
  C   2.15863506237979      2.03906979679769      6.34879040124978
  C   3.50013101369415      2.32412344708915      6.63506122821063
  H   3.75369195542434      3.14149029341435      7.30145230978736
  C   4.49626920761387      1.53380676655427      6.04959237200359
  H   5.54450831026835      1.73441533671679      6.26016834906265
  C   4.12779716133395      0.47917111394386      5.21006645028099
  H   4.87031512626676     -0.16570241725720      4.74744214238444
  C   2.76641365516663      0.26004997262035      4.96621639720655
  H   2.42679308676234     -0.55106975284413      4.32596005180614
  C   0.33593253216124     -2.19985021341518      4.87822748862784
  N   -0.58347452569118      2.35510992249501      3.81799585930052
  N   -2.71889056700270      5.16410844082150      3.85094517365945
  N   -2.54831778564258      1.08502432205114      5.03087915350665
  C   0.63548439447735      2.97065198880171      3.41684608224830
  C   1.06885432007451      4.18062118664464      3.98473688361824
  H   0.42777430515284      4.71609428141643      4.67987995249455
  C   2.34576730858336      4.66358280131042      3.68559519158628
  H   2.69069170753920      5.57916217729741      4.15972781494775
  C   3.17791828400990      3.96344082282363      2.80239703278516
  H   4.16934034902315      4.34598037811146      2.56835610152248
  C   2.73536778230755      2.76203542307430      2.22746379019225
  H   3.37865535556005      2.21438726768696      1.54137281421147
  C   1.47552678016461      2.25092788487713      2.54913569280908
  H   1.12927439407180      1.30484291317691      2.13583803949851
  C   -2.92589548437872      6.37739700029942      3.30842288993548
  H   -3.52749460378795      7.06447815476744      3.90337113574395
  C   -2.42596976007561      6.76423683465006      2.05760320290958
  H   -2.63596516211180      7.75724458518658      1.66662779697362
  C   -1.66752023169104      5.84237548437475      1.32650081583967
  H   -1.27399462622295      6.09759153205101      0.34487586803688
  C   -1.42248018976140      4.58299742005721      1.88026581817613
  H   -0.83197419642507      3.84105787834304      1.34899950022148
  C   -1.96409022883197      4.29267934177468      3.14432555484840
  C   -1.74297240598101      2.96138520125634      3.77837127359698
  C   -2.88786660075966      2.20333782428857      4.33588821968435
  C   -4.22730300468789      2.54715510986230      4.11001634823704
  H   -4.47306051962972      3.44859789625076      3.55954186536221
  C   -5.23104516327974      1.70738566685104      4.60606749276696
  H   -6.27769275936852      1.95366314082327      4.44112527968150
  C   -4.87408165774423      0.54573863548323      5.29720460229549
  H   -5.62541321209376     -0.13648325644809      5.68653432492879
  C   -3.51426198958378      0.27121582167291      5.48515430844374
  H   -3.17376214903723     -0.62058608671324      6.00745446830117
