29
Coordinates from ORCA-job ACINUX-oxo_2_3_tpss_d4_lanl2dz_631gpol_Co3.opt
  Co  -2.34445478144278     -0.05703077595557      6.79836971725890
  N   -3.93213080152993     -0.17341479769975      7.86007210515169
  N   -5.09386809962568     -0.03381884432286      7.46892792336122
  N   -6.21255217805830      0.07408063362710      7.17903120452254
  N   -3.26064372733628     -0.54772586340316      5.09055647025370
  H   -2.74866647915155     -1.29993022432388      4.61192460032188
  H   -4.21359572185722     -0.89791284241165      5.26031934608757
  C   -3.29457784450248      0.67808105211776      4.20829853328321
  H   -4.00381506014733      0.52913114919942      3.38537490133491
  H   -2.28685173141952      0.80615063091574      3.79803592638066
  C   -3.69058659567541      1.84710798870054      5.09760259540253
  H   -3.61689636165364      2.80486776965087      4.56850439100265
  H   -4.71084746617891      1.73863263527178      5.48074339793006
  N   -2.74821965979357      1.83495920932395      6.27500797127510
  H   -3.12930431015189      2.39519151639256      7.04822711327898
  H   -1.84134700794404      2.24455336761897      6.00869202730034
  O   -0.88768014461530      0.03895310478081      5.95562340505268
  N   -1.44092735100251      0.45235079337958      8.50563944842896
  H   -1.99996758616503      1.14746625163248      9.01670787899701
  H   -0.53088282232447      0.87467144086462      8.27575027042905
  C   -1.26017377348795     -0.78494302616656      9.34763960147712
  H   -0.50082640225043     -0.60391459202392     10.11789867194530
  H   -2.22186498156511     -0.99063198655853      9.82909410009200
  C   -0.85854141993057     -1.89979879320167      8.39542593463543
  H   -0.80039964737073     -2.87250116847025      8.89890113008612
  H   0.09794150065653     -1.69229035338603      7.90303807829059
  N   -1.91605224995890     -1.93758472687225      7.32267745023720
  H   -1.59103394423703     -2.50129481982222      6.52671563060212
  H   -2.78513335127989     -2.35550472885788      7.68320017558026
