30
Coordinates from ORCA-job ACINUX-OH_2_4_tpss_d4_lanl2dz_631gpol_Co3.opt
  Co  -2.36959414836675     -0.10337260773880      6.75897798389251
  N   -3.99376434926790     -0.43384717068583      7.55528762502260
  N   -4.90167679564254      0.34144737643705      7.86844907425857
  N   -5.80750964185876      0.98151627859089      8.20231476109184
  N   -3.11456578438267     -0.54728163916749      4.82364325709704
  H   -2.53762334762899     -1.22791221624351      4.31444882249256
  H   -4.02816799458807     -1.00016317286476      4.95103791511640
  C   -3.26975210563948      0.71489771729132      4.02960593159204
  H   -3.91306021983945      0.54594612705138      3.15715701080990
  H   -2.27753095025999      1.00898374435275      3.66586027404962
  C   -3.86448333153771      1.79965630748512      4.93053102307232
  H   -3.91540985766223      2.75169471817530      4.38758538205004
  H   -4.88236870630282      1.53362445014123      5.23999192262955
  N   -3.02405729668253      1.92016828496169      6.16052036874263
  H   -3.50934269376090      2.48140359260829      6.87025618894541
  H   -2.15493112442404      2.42576585621950      5.94961389143605
  O   -0.75374358505707      0.17747603481602      6.12726841402218
  N   -1.48221857960058      0.37846684423363      8.59938791352553
  H   -1.97755159717357      1.09850314781313      9.13730863203776
  H   -0.56825481144403      0.76676872289019      8.33048843549174
  C   -1.31304005387100     -0.86802843774658      9.40866295092796
  H   -0.58173603807658     -0.70382065467787     10.21024760527325
  H   -2.28260545971924     -1.10358015766714      9.86190402160594
  C   -0.84651162107224     -1.99388774591288      8.48345187053586
  H   -0.74951557080242     -2.92908835686193      9.04905954389220
  H   0.12342912563702     -1.75374255392192      8.03427623694042
  N   -1.83333305863999     -2.13774217765774      7.37184434086843
  H   -1.43377694835499     -2.70574075173932      6.61712664598508
  H   -2.68148353071647     -2.61825598022915      7.69583656999514
  H   -0.62980992326391      0.07355442004743      5.15606538659919
