28
Coordinates from ORCA-job ACINUX_2_3_tpss_d4_lanl2dz_631gpol_Co3.opt
  Co  -2.52992201423848     -0.03785266693057      6.90507054639478
  N   -4.11546449668301     -0.10641522824345      7.98337707351904
  N   -5.28573363641248     -0.17214709590572      7.59859517605700
  N   -6.40569743987317     -0.24140229019362      7.29052308633058
  N   -3.38103918903772     -0.50941055047779      5.16305768231864
  H   -2.97106545169799     -1.33324183997575      4.70385495371070
  H   -4.36728052726321     -0.75811738351268      5.32372882230795
  C   -3.31816184395988      0.66976472604331      4.21429231269995
  H   -4.05607487233960      0.55487950492839      3.41190912217992
  H   -2.31614027096082      0.68016343542708      3.76938156026480
  C   -3.56538868683909      1.91513986783887      5.04936589154071
  H   -3.42367112369889      2.83378295556040      4.46823672294943
  H   -4.57527283850401      1.92191968453095      5.47457724394730
  N   -2.59018244636127      1.85337616864919      6.20129613887086
  H   -2.86213850390625      2.53200581634398      6.92398589868650
  H   -1.65937029122055      2.15174287049742      5.87467321793386
  N   -1.55544379578960      0.44576070426389      8.56471525794327
  H   -2.12444519576130      1.09596438639190      9.12282399025483
  H   -0.65903012596881      0.91836113711122      8.38039154919573
  C   -1.30850087063055     -0.81408646109078      9.36004633695681
  H   -0.60020858538392     -0.62110330514854     10.17441368231083
  H   -2.27132721199544     -1.11569558281368      9.78651575153705
  C   -0.78441625687474     -1.84464388924887      8.37417330453259
  H   -0.67496488112410     -2.83545408961247      8.82969646880825
  H   0.18236087731203     -1.54357183631567      7.95374502267700
  N   -1.77969483013576     -1.89200992745227      7.23448376468128
  H   -1.35289950903625     -2.36001384938207      6.42428765450894
  H   -2.58052598161500     -2.47709526128269      7.50848176688114
