29
Coordinates from ORCA-job ACINUX-oxo_2_5_tpss_d4_lanl2dz_631gpol_Co3.opt
  Co  -2.32425603565882     -0.01952581297454      6.78661400261425
  N   -3.94000317420790      0.01300346904248      7.86791736758084
  N   -5.11551508075901     -0.23879009492935      7.63737269563555
  N   -6.25145394277457     -0.46544936878264      7.50372796488759
  N   -3.31523741829484     -0.45276996333248      5.00247878345088
  H   -2.81087492835690     -1.21625703727614      4.53656232334126
  H   -4.28305954257399     -0.77860910063385      5.12103873390595
  C   -3.28448926877590      0.76887374622083      4.12854015000994
  H   -3.95402715078997      0.64270035487040      3.26927415408001
  H   -2.25663007912690      0.87828504197505      3.76527404880710
  C   -3.70103910150876      1.98067579865814      4.96443095447020
  H   -3.64301319849279      2.89387951502377      4.35639914886454
  H   -4.72965642999958      1.87835411041012      5.33005717211376
  N   -2.80064849609357      2.08015612571223      6.14578643696172
  H   -3.19760717770701      2.67054355998707      6.88399853015839
  H   -1.88721707284322      2.47194351940443      5.88778727464651
  O   -0.90505225301686      0.01612331736781      5.97969568179355
  N   -1.35499106276880      0.41717314967835      8.57111354412013
  H   -1.85967423105105      1.14624287395356      9.08921125769099
  H   -0.42121878549496      0.78477518633240      8.35116367980828
  C   -1.24998590776295     -0.82922078546192      9.39493907194479
  H   -0.49803708349531     -0.70239140827236     10.18353964291499
  H   -2.22609991069984     -0.99639817281090      9.86498122411921
  C   -0.87594289964294     -1.99599866458805      8.47714624085289
  H   -0.80435802243622     -2.92423584291224      9.05928545961483
  H   0.08264855752849     -1.81385631429733      7.97899791095523
  N   -1.91607988795478     -2.12469307929811      7.41366368712576
  H   -1.55605166915080     -2.64525063398310      6.60675331499120
  H   -2.74432874609017     -2.62138348908362      7.76024954253943
