57
Coordinates from ORCA-job BUNLOM-CH3OH_1_6_tpss_d4_lanl2dz_631gpol_Mn2.opt
  Mn  3.98328612860177     11.14013015861974      2.19655081802979
  Cl  2.81485358891235      9.05616144101979      2.02524316916257
  O   3.24934489078709     11.96731307016481      0.20720744555405
  C   1.77408459460623     13.44500687616543      2.73525020510370
  H   2.03891289521886     13.73912303042445      1.72125199823800
  C   0.75645771011250     14.08579598566841      3.44268609601570
  H   0.19996868068587     14.89924417527060      2.98399710663798
  C   0.48198434689688     13.65779051705923      4.74786167498833
  H   -0.30204328969099     14.13356430534594      5.33318337746272
  C   1.23799334728377     12.61581023955525      5.29514654367104
  H   1.05928101069927     12.26792452037088      6.31035895192432
  C   2.23558573998296     12.01377014530250      4.51988446428689
  N   2.49430078616366     12.42660923606185      3.25422095305902
  C   6.04402769320028      9.20276945258383      0.72509119333232
  H   5.18221630275667      8.54889115222525      0.85215976807975
  C   7.26428340798175      8.75584291853660      0.21196571678552
  H   7.37933008373519      7.71690505018686     -0.08621269112249
  C   8.32124577714627      9.66671527741773      0.10166874616380
  H   9.28739685293338      9.35036091718894     -0.28614704081821
  C   8.12474887002781     10.99300510872177      0.50823334164416
  H   8.92909188711084     11.72333441100355      0.44533340983284
  C   6.87366090778187     11.37006531986913      1.00319246852228
  N   5.85100940413108     10.48574944021610      1.10925037870308
  C   6.55865953098696     12.79168043528673      1.43981776211429
  H   7.49027703405503     13.33035969319904      1.67487733946047
  H   6.06317071408257     13.33139972709299      0.61987946496034
  N   5.61560247709706     12.75943085888446      2.58063844738233
  C   6.27371028683836     12.39318395815920      3.86479236186290
  H   6.90968583011270     13.20975366688682      4.24050090632409
  H   6.92461430699320     11.53403026820553      3.65740643164862
  C   5.21403049764307     12.02023053244590      4.90244166869982
  H   5.68177316322313     11.81186116845886      5.87627589143859
  H   4.52740457128065     12.86593326923619      5.03954418576016
  N   4.41626014100614     10.85673902411951      4.42953828240138
  C   3.05849878601057     10.84848056096283      5.03290250272948
  H   3.09619227240003     10.85900055504112      6.13275456969959
  H   2.57825945976885      9.91297776554570      4.70958128004766
  C   5.11939384147043      9.53552000446632      4.64123693885530
  H   6.06456266570158      9.59194082613454      4.08526346228601
  H   4.48868730618524      8.78915737924829      4.14337932199215
  C   5.37069122370576      9.18327232115202      6.08994546579155
  C   6.57124964549370      9.55300748718102      6.72459106415689
  H   7.35592420401632     10.04629585927935      6.14813293962475
  C   6.78314150094915      9.26706774914389      8.07898133726501
  H   7.71947920358378      9.55338619007085      8.55475742470822
  C   5.79496980708388      8.60021681756127      8.81492857146491
  H   5.95930330174991      8.37187647635669      9.86633715892781
  C   4.60289172204106      8.20945152822348      8.18938593196181
  H   3.84287870816488      7.67016716085707      8.75198761078504
  C   4.39408633451762      8.49708665486857      6.83559412672131
  H   3.47659288179809      8.16957041652920      6.34636502592916
  H   5.17306625653805     13.67770997966307      2.68123335299307
  C   1.95220827871163     11.47645815270096     -0.26995534358492
  H   1.70034537033687     11.98341567360494     -1.20827076422425
  H   1.23119864035900     11.73627673916647      0.50706090169181
  H   1.97766043311597     10.38876270256235     -0.38554496306326
  H   3.92087798591288     11.68021564872487     -0.44447875406963
