53
Coordinates from ORCA-job BUNLOM-OH_1_5_tpss_d4_lanl2dz_631gpol_Mn2.opt
  Mn  3.79895173647957     11.34879962851104      2.20405856984045
  Cl  2.49340695770447      9.39602054648177      2.09534618267162
  O   3.34177633931272     12.05652833296415      0.61810763490883
  C   1.57888608966631     13.48783945377141      2.71514516142117
  H   1.80293736509168     13.72169617187675      1.67663555333341
  C   0.55401891549480     14.10402927980797      3.43435697831115
  H   -0.05710014726368     14.87002114894931      2.96415994844612
  C   0.33452711450755     13.71143797167632      4.76134229223480
  H   -0.45468935364667     14.17456962693643      5.34970674047714
  C   1.13858083152006     12.71332902741102      5.32605486964444
  H   0.98740992450026     12.38374988960651      6.35151575802131
  C   2.13965866976545     12.13502788060723      4.54225365912419
  N   2.35626863481124     12.53304421059917      3.26633912413280
  C   5.74868037702840      9.10099598601404      1.02708088582447
  H   4.95769642726585      8.45543379415204      1.40270857897616
  C   6.81789938535079      8.61502010158057      0.27326842981686
  H   6.88907210360068      7.55251369393724      0.05562576624586
  C   7.78133092684082      9.52040247570126     -0.18837877831300
  H   8.63004567489744      9.17518932956295     -0.77499608100320
  C   7.63833074779264     10.87976176055648      0.11243804801699
  H   8.36588010023483     11.61149909099581     -0.23308541564073
  C   6.53310501695376     11.29293824998812      0.86166179685688
  N   5.61590033785219     10.41250210310544      1.32354446529778
  C   6.25432394165701     12.75406924750011      1.16295600362427
  H   7.19392949076420     13.31952341462169      1.25414395530820
  H   5.66344731660329     13.17847236365405      0.34124198314057
  N   5.42304005199492     12.85284102346178      2.38365481887156
  C   6.15432742010070     12.55966844377057      3.64489732714007
  H   6.76413151936074     13.41359261649423      3.97438904305132
  H   6.83292783819452     11.72318787175775      3.43864066400172
  C   5.13380530008429     12.18163546187976      4.71154963794986
  H   5.61292012398356     11.94505251004903      5.67115746368936
  H   4.44503312359267     13.01993534118005      4.87374196984062
  N   4.31001487920627     11.01009603998966      4.25182908235287
  C   3.01188907978944     10.99236885221826      5.00320178028309
  H   3.19134856635744     11.02165127522395      6.08627392420797
  H   2.51409130509216     10.04578535612502      4.75185949038123
  C   5.04611065724023      9.68750276959884      4.42572935064646
  H   5.96982744854147      9.77669298554619      3.84508837426781
  H   4.40692490098363      8.94342188002838      3.93694533667807
  C   5.33944205125444      9.31720934011292      5.86014835816814
  C   6.54790016409104      9.70437731679516      6.46947397181745
  H   7.29970435359179     10.24017383806111      5.88761325159464
  C   6.81092957930939      9.37746306692621      7.80528070752570
  H   7.75245861138544      9.67635257041325      8.26215012102154
  C   5.86841941436514      8.65152839925826      8.54540900061481
  H   6.07352374276224      8.39115006067435      9.58195009186019
  C   4.67097109257259      8.24153259333383      7.94276829588495
  H   3.94790747999593      7.65601468264493      8.50744776158267
  C   4.40998961352494      8.56977636471340      6.60761793454856
  H   3.48945787376367      8.22716409940024      6.13492173038755
  H   4.98955827299054     13.77961249084665      2.43111442750088
  H   2.77575061108490     11.42107796892683      0.12657397341222
