53
Coordinates from ORCA-job BUNLOM-OH_1_3_tpss_d4_lanl2dz_631gpol_Mn2.opt
  Mn  3.88416736417495     11.44206506929453      2.23445495053933
  Cl  2.48744166253707      9.61216346003670      2.07867885169446
  O   3.43758499759766     12.20524007263715      0.66072929684360
  C   1.68116911559024     13.38490127776845      2.60360640049973
  H   1.92715007565291     13.59210839477378      1.56548681179862
  C   0.65642213199371     14.02870584405454      3.29639056047692
  H   0.06777557263708     14.79133944391160      2.79312014659444
  C   0.40673789973116     13.67707034669857      4.62825303327627
  H   -0.38354489246232     14.16542408063719      5.19372215530143
  C   1.19321564976761     12.68307075772700      5.22285243486522
  H   1.03053733258900     12.37805871212637      6.25410832697146
  C   2.19415050249367     12.06700497743032      4.47150124652114
  N   2.44068060389763     12.42518997124874      3.18248006674573
  C   5.54999161787334      9.16451355314050      1.10466520850574
  H   4.72283957826614      8.55498735653320      1.45912226086913
  C   6.63891369718251      8.63238541056921      0.41381468153969
  H   6.68701452481942      7.56197119028002      0.23220242144218
  C   7.64471037238263      9.49435420471250     -0.03739731216776
  H   8.50649230639465      9.10764592692805     -0.57690227959872
  C   7.52662439874494     10.86681905213965      0.21375378288727
  H   8.28673472197946     11.56748967170370     -0.12433898882023
  C   6.40787600044711     11.33513366002355      0.90354902193880
  N   5.43822902840109     10.49022585352053      1.35223502877452
  C   6.14554431211643     12.79622349887904      1.17599825342459
  H   7.07811621355400     13.36968110795959      1.27208439617482
  H   5.53599413125429     13.21258770698205      0.36575327182775
  N   5.31765290129679     12.87892518334871      2.41734198736282
  C   6.11473728948979     12.62301131186029      3.65683641881950
  H   6.68430227580720     13.51510000539337      3.95009119052686
  H   6.82849148139259     11.82545466411949      3.41720289078113
  C   5.15529700862702     12.18187758580704      4.75022597315720
  H   5.67827173014256     11.93916238851265      5.68497848601278
  H   4.43759222882705     12.98473990528992      4.96058247714702
  N   4.37292865623150     11.00009195593600      4.26021727745427
  C   3.05828666845853     10.94365108710986      4.97780362476453
  H   3.20178469200626     10.98713468367072      6.06568273950055
  H   2.59227338229082      9.98597100273786      4.71417975122206
  C   5.12791165718765      9.69183777952565      4.41858232430327
  H   6.06014353228262      9.80182762340367      3.85395387563740
  H   4.50543689541673      8.94647508776108      3.91029645991514
  C   5.40881377073576      9.29832247191582      5.84961103161472
  C   6.60823165472203      9.68500422068539      6.47672930493544
  H   7.36253946142933     10.23283466079552      5.90926868525787
  C   6.85941458126288      9.34281940480371      7.81101969600765
  H   7.79419931731200      9.64164259776411      8.28156530742369
  C   5.91356605404901      8.60201351208886      8.53183958051736
  H   6.10907813685573      8.32977820657243      9.56717607902336
  C   4.72511979344447      8.19266064296139      7.91123374565228
  H   3.99941844699625      7.59622846288886      8.46090281916699
  C   4.47631457313497      8.53582991460920      6.57755239422694
  H   3.56241545208044      8.19410329582112      6.09163353324925
  H   4.87361299421679     13.80213983263743      2.46962453878797
  H   2.87627644468666     11.56628191026300      0.16860377860570
