51
Coordinates from ORCA-job BUNLOM_1_2_tpss_d4_lanl2dz_631gpol_Mn2.opt
  Mn  3.89813498741052     11.31676123397681      2.34176156848775
  Cl  2.45024424363298      9.58944091179128      1.97446180493675
  C   1.69826594383286     13.32053847611843      2.56049081392836
  H   1.91085720338856     13.49351761310558      1.50725676886422
  C   0.69153016735994     14.01690935074886      3.22719750828559
  H   0.11410569982515     14.76841184647831      2.69518300895494
  C   0.43804645141520     13.71880594426693      4.57190591724837
  H   -0.34351811696850     14.24147548404411      5.11822934081491
  C   1.20374957159359     12.72980022387848      5.20181333845357
  H   1.03146746996821     12.46549749293909      6.24269411028129
  C   2.19615803561461     12.06964869397381      4.47745543018299
  N   2.44807385663079     12.37046870148164      3.17134420485464
  C   5.53015163295687      9.18556353966305      1.00363734818762
  H   4.71398902530540      8.55204389887203      1.34023094683480
  C   6.62325854810952      8.69053618745711      0.29414331920698
  H   6.67968649402648      7.62651590340334      0.07929135579213
  C   7.62326387233474      9.57203445849410     -0.13202978422236
  H   8.48748984916796      9.21081009362163     -0.68441345302994
  C   7.48893609989293     10.93504223025863      0.16619449583972
  H   8.24058499213819     11.65539119658101     -0.14921511580286
  C   6.36897280728614     11.36748928597450      0.87174707962836
  N   5.39597902094529     10.50646596460123      1.30163432089400
  C   6.09303906058240     12.81350783765773      1.20467159786232
  H   7.02000645089644     13.39659265445883      1.30352214877345
  H   5.48028231733504     13.27564516149007      0.41776488582209
  N   5.28159873599715     12.83261923075656      2.46040421679018
  C   6.11435677603684     12.57324760229298      3.67932973703862
  H   6.70064826913397     13.46094280080940      3.95544580742191
  H   6.81182677536876     11.76737531383201      3.41990689166612
  C   5.17883224751247     12.14825313770610      4.80218742984141
  H   5.72660230658873     11.90616125435225      5.72312089809084
  H   4.47696294997938     12.96149500253292      5.02843664990902
  N   4.37252402351967     10.97913037277523      4.33329811415304
  C   3.04114758720423     10.94830386359929      5.02339023639289
  H   3.15043791594035     11.00240711305732      6.11505917810678
  H   2.57575024419180      9.99043765761158      4.75593512368920
  C   5.10151864126476      9.65713875983922      4.48676928096171
  H   6.02376969470324      9.74616877709065      3.90105814817605
  H   4.45700050914334      8.91952170398339      3.99340768931665
  C   5.40383763272019      9.27415178032018      5.91650327625269
  C   6.62618190601706      9.64033793046256      6.51065221158159
  H   7.38288494238246     10.15595137099719      5.91664275293002
  C   6.89598102573072      9.31903301743773      7.84643229880224
  H   7.84820189370532      9.60124936139265      8.29172436441434
  C   5.94549821533788      8.61993387222317      8.60198365288248
  H   6.15485508951794      8.36354579376674      9.63870629355857
  C   4.73341412044528      8.23142511351486      8.01469946189101
  H   4.00354411702672      7.66670977956624      8.59167753022141
  C   4.46573929465026      8.55409983414422      6.67941698798671
  H   3.53299923687597      8.22795875336175      6.21938657523124
  H   4.83973016432398     13.75448641723660      2.55695223161337
