57
Coordinates from ORCA-job BUNLOM-CH3OH_1_2_tpss_d4_lanl2dz_631gpol_Mn2.opt
  Mn  4.05009735895117     11.29941028902331      2.34928708182843
  Cl  2.74408625767131      9.36522530129366      2.12882117059025
  O   3.53391222334710     11.91032514185339      0.42967436104523
  C   1.92540003670404     13.35481650921796      2.64788970448291
  H   2.24336054460964     13.64278498026524      1.64838511802873
  C   0.90544191931847     14.03191981773215      3.31446760390700
  H   0.40968901631508     14.86862243963093      2.82853920760629
  C   0.54050038534279     13.61598692168432      4.60067000864325
  H   -0.25521783924058     14.11926923953662      5.14458803298833
  C   1.23651136987848     12.54803333695990      5.18205809827500
  H   1.00339960191921     12.20866533914573      6.18891206660153
  C   2.24582265071739     11.91219990069464      4.46031903357591
  N   2.57947193454813     12.29510627754545      3.19189705962408
  C   5.85989319440104      9.16868557348238      1.20975315022321
  H   5.03650349525258      8.51716311829243      1.49197785101718
  C   7.02242988989525      8.69320204674847      0.60431605694577
  H   7.12471811682760      7.62745357209434      0.41538524067530
  C   8.03495037840444      9.59370663191125      0.25145951947638
  H   8.95457796280765      9.24773257596739     -0.21447024290725
  C   7.83685969728853     10.95669950054788      0.51145971766223
  H   8.59433338485176     11.69348221246780      0.25175486663076
  C   6.64756078755394     11.37067442827338      1.10836562787050
  N   5.66062223684690     10.49018281154542      1.47463287003919
  C   6.31461419913015     12.81623340253919      1.40189383245167
  H   7.22204957838446     13.41620754308279      1.56448439282680
  H   5.75241951018106     13.26785865989127      0.57345018395511
  N   5.41226982516758     12.81839659433640      2.58795340723425
  C   6.15841521037242     12.57253485178175      3.86159698557001
  H   6.68246025739512     13.47853107819200      4.19748131463299
  H   6.91096102242488     11.80372267895609      3.64598792284027
  C   5.16203355720924     12.08376735036716      4.89907463676136
  H   5.64846840608119     11.83735701501196      5.85255263894336
  H   4.41472190872352     12.86386488366429      5.09239445941454
  N   4.43856381678978     10.89509083429845      4.34388380005438
  C   3.08543714396613     10.78219043680109      4.98707018857933
  H   3.16020654169750     10.79986396776315      6.08304107108417
  H   2.66489362265749      9.82271066862950      4.66258905901940
  C   5.22815575325239      9.61038559854858      4.52213403276361
  H   6.17724669075546      9.75923343617434      3.99518758490343
  H   4.65151055055472      8.85220272241796      3.98058077012712
  C   5.46656340684861      9.21165214097758      5.95991096562012
  C   6.63549701069153      9.61598545900871      6.63172972922849
  H   7.39805594280371     10.18201020356129      6.09380727820959
  C   6.84594445405680      9.27199188123550      7.97261265306026
  H   7.75774563934280      9.58609457350788      8.47738332221945
  C   5.88857275045515      8.51146165388228      8.65661940081110
  H   6.05177600573414      8.23862048128874      9.69747869344956
  C   4.73047215311941      8.08437740168844      7.99209826065021
  H   3.99610194100615      7.47330395820075      8.51363529139053
  C   4.52320653979039      8.42906016168345      6.65165039067429
  H   3.63332820804660      8.07471589073337      6.13169099680161
  H   4.93303477617247     13.72399796203763      2.64967420014917
  C   2.24651179426606     11.51929186838449     -0.17057418421800
  H   2.09662084018257     12.12713897304550     -1.06978562360924
  H   1.48381986780469     11.72892468374054      0.57879847522627
  H   2.24893328836142     10.44900100556644     -0.38850431242286
  H   4.23283318236207     11.52867201308630     -0.14046502323288
