51
Coordinates from ORCA-job BUNLOM_1_4_tpss_d4_lanl2dz_631gpol_Mn2.opt
  Mn  3.89866723451173     11.29575943024750      2.26163184824040
  Cl  2.47671604722619      9.54375756881616      1.95221168683378
  C   1.73421790424132     13.30902087769101      2.53435913701159
  H   1.95825353530429     13.48352284340586      1.48394253266549
  C   0.73005975612302     14.01300844451804      3.19385775145105
  H   0.16456398416626     14.77136660872890      2.65890144559554
  C   0.46480746013136     13.71473777055632      4.53706016838422
  H   -0.31423833414605     14.24421142067511      5.08030541493805
  C   1.21921721293141     12.71914035012813      5.16856428137257
  H   1.04203295989939     12.45853890533422      6.20968290708073
  C   2.21142239353629     12.04573961065348      4.45395028833522
  N   2.47147313064799     12.34790168671178      3.14800172247611
  C   5.52548763194642      9.23576927182175      0.83282947854727
  H   4.71097433464416      8.58548800694713      1.13898063027806
  C   6.63430139020939      8.77288772585144      0.12794303375989
  H   6.70207915396621      7.71637132045012     -0.11824535374428
  C   7.63527567447291      9.67405310483338     -0.25609516564177
  H   8.50988139098701      9.33608252632263     -0.80650631384251
  C   7.48890415163887     11.02534788972591      0.08625409607947
  H   8.24306928454830     11.75947419714239     -0.18891026627824
  C   6.35646997906509     11.42979307265419      0.78774854817066
  N   5.37762262025929     10.54809588244145      1.16798978264432
  C   6.07793103839618     12.85703876289570      1.18600378075782
  H   7.00247281867806     13.43787029798069      1.31118187450927
  H   5.45857851931949     13.35612445360433      0.42752368149515
  N   5.27203615627585     12.81755297285186      2.45057006077186
  C   6.10582197080497     12.47811419685608      3.65162172454091
  H   6.73877145799030     13.33282292576782      3.92972009977669
  H   6.75886135956995     11.64800238467049      3.35582449518632
  C   5.19244481049230     12.06676900689202      4.80450235966872
  H   5.78002441394739     11.85149811064039      5.70883028141040
  H   4.50712578100719     12.89098533864785      5.04310451120223
  N   4.37251930652197     10.89385350255298      4.39631304398782
  C   3.03074580860223     10.91880641965176      5.04025470688447
  H   3.09477333393929     11.00151794197027      6.13506416908199
  H   2.54449200791903      9.96554803920315      4.79066143936201
  C   5.07172965268991      9.57197022845880      4.58617625806514
  H   5.99320952178723      9.61817098084069      3.99095934933175
  H   4.41324347024207      8.82718266227836      4.12173616590180
  C   5.38371423553279      9.23108580353288      6.02554021482649
  C   6.62580767882032      9.58014408074835      6.58768784602497
  H   7.39184488713183     10.03895396065978      5.96000549998261
  C   6.90200810881796      9.31331295121697      7.93436912890500
  H   7.86988016985042      9.58123794068469      8.35410698215383
  C   5.93708705187780      8.68720386794367      8.73407962818096
  H   6.15105771913597      8.47301810054234      9.77936939977680
  C   4.70335442971009      8.31760314126183      8.18043257018271
  H   3.96087443106513      7.80942720014840      8.79289724744945
  C   4.42981973664126      8.58582735074684      6.83423882212428
  H   3.47893520277939      8.27340761507034      6.40235392439934
  H   4.83817602414242     13.73588124602315      2.59991307970140
