43
Coordinates from ORCA-job AQUWEP-oxo_1_5_tpss_d4_lanl2dz_631gpol_Fe2.opt
  C   -0.14520838920028     15.17715141130802      1.43364346118717
  H   -0.93093724700746     15.53869655032250      2.11110793492848
  H   0.65563474858560     15.92948205762345      1.43598154466873
  C   -0.65958606965417     15.05423952070616      0.01966204731499
  C   -1.56544262248939     15.96124446218798     -0.53558389107726
  H   -1.98381035092541     16.75802835284285      0.07576984364995
  C   -1.91542191500789     15.82805613620630     -1.88473664344544
  H   -2.61910531487381     16.52351772960041     -2.33744890945187
  C   -1.35370779178159     14.79146409248473     -2.64037069549057
  H   -1.60150456173373     14.65718793650149     -3.68997514558927
  C   -0.46870038384885     13.91128807727091     -2.01905012246674
  H   -0.00856522633960     13.06456557940945     -2.52196663247559
  C   -0.50797423704231     13.15747002947773      2.84406081718531
  H   -0.94926656596575     13.83197258111927      3.59248074562167
  H   0.08434753949717     12.39167168867054      3.36299949634176
  C   -1.57235808541546     12.45548221215628      2.03543666833844
  C   -2.86544532905076     12.22601699517214      2.50103217346798
  H   -3.18003401688961     12.61948292347124      3.46451459184628
  C   -3.74035446355990     11.46422305947885      1.70860895845510
  H   -4.75197093199474     11.25871991144323      2.05145397909422
  C   -3.31018562255676     10.97578124724455      0.47470713614060
  H   -3.94539922165538     10.38738852260313     -0.18044964615779
  C   -2.00223973921414     11.28358490004581      0.09170041419668
  C   1.72181109647321     14.17204204056567      2.67154893152585
  H   1.58550792502299     14.95471982060939      3.43357176318636
  H   2.02124088684183     13.24032961186115      3.16767221053722
  C   2.79021176878384     14.56517002490207      1.67719388642411
  C   3.89346350854730     15.33581872865586      2.04209405920749
  H   3.98551966665920     15.70918628990061      3.05944340548447
  C   4.87621156755317     15.60337990501572      1.08054098086577
  H   5.75757738313750     16.18667381702852      1.33834014966224
  C   4.70725365961426     15.13087628023848     -0.22195655253664
  H   5.43217950197180     15.33131069084870     -1.00441875255049
  C   3.55300445712334     14.39105399454915     -0.50197166279113
  N   0.44060057581299     13.89482348838810      1.95395206295033
  N   -0.13441990033176     14.04963708198783     -0.71813939723537
  N   -1.14950249789602     11.98293538161609      0.83609935085381
  N   2.62781240049925     14.08605174070220      0.41409271618442
  F   -1.54915949066974     10.88381777452675     -1.09866922530351
  Cl  1.87181271830920     11.13319589960454      1.69146314859698
  O   1.19515107196687     11.77752080572507     -1.08100321657495
  Fe  0.90998300269047     12.62184029318218      0.29023192661606
  Br  3.26437649601451     13.81130035274406     -2.33836391138589
