44
Coordinates from ORCA-job AQUWEP-OH_1_6_tpss_d4_lanl2dz_631gpol_Fe2.opt
  C   -0.11661468082773     15.20942961669626      1.46157494093159
  H   -0.86129451559673     15.61923852127692      2.15993286405546
  H   0.71003447758641     15.93198276189309      1.41245643429200
  C   -0.70257405486857     15.08713488385848      0.06863487054076
  C   -1.67399275315080     15.97159146220132     -0.40840646194497
  H   -2.08705819569534     16.73595506630031      0.24679500314691
  C   -2.09755928868923     15.85740014613855     -1.73806256375074
  H   -2.85281370883507     16.53480271703762     -2.13115846364152
  C   -1.54234223136076     14.86145979663345     -2.55070107770723
  H   -1.84675579407556     14.74218562683374     -3.58720325904254
  C   -0.58916143395936     14.00278128011453     -2.00098414265270
  H   -0.13131627638563     13.18646187360653     -2.55400909720987
  C   -0.51850340849807     13.18724686866177      2.83764190861248
  H   -0.98411358698602     13.84772249274548      3.58554975268610
  H   0.05539392295811     12.41316456780857      3.36557392527291
  C   -1.57097320319296     12.49462925450938      2.00485401666068
  C   -2.88455859780266     12.32538950972959      2.43788685958297
  H   -3.20612511415380     12.75654128927742      3.38259245637702
  C   -3.77052031716650     11.58159787979761      1.64239037327858
  H   -4.79899074532624     11.42726005890381      1.96069947987944
  C   -3.32480003288574     11.04453039618565      0.43526658409911
  H   -3.96292669508532     10.46457867313953     -0.22418724072061
  C   -1.99469175600859     11.28786395875298      0.08429759026680
  C   1.73253154790174     14.14804836841632      2.67858077632413
  H   1.65201661625787     14.93133424550326      3.44907094178386
  H   2.00615769068903     13.20312167202433      3.16551955523079
  C   2.80625589757921     14.50856355820933      1.67665009684854
  C   3.91284966847383     15.27573978728265      2.04033794131717
  H   4.00088229550496     15.65031482343008      3.05738848702623
  C   4.89893763206208     15.54235348299827      1.08342038844391
  H   5.78114857953477     16.12339817560148      1.34284312926184
  C   4.72635721302871     15.07575474716093     -0.22042804182962
  H   5.44750257366982     15.28114818112823     -1.00477138638090
  C   3.57205711933061     14.33742749373381     -0.50122549527973
  N   0.44073875410701     13.92719735255903      1.98039683072941
  N   -0.18176594911022     14.12288231747785     -0.71892866538673
  N   -1.13074058511774     11.97738433289875      0.82821520679947
  N   2.64444382786647     14.02411286989715      0.41358067162443
  F   -1.53125476457444     10.82136922421545     -1.07790163905350
  Cl  1.90261012675151     11.04588962089943      1.69041305485384
  O   1.13415014298659     11.67671317055280     -1.37581393579759
  Fe  0.94903136887999     12.54668623619743      0.21623441188032
  Br  3.28605267795125     13.78182955698192     -2.34505023900017
  H   1.56524555623312     10.79691208072805     -1.34952684240835
