48
Coordinates from ORCA-job AQUWEP-CH3OH_1_1_tpss_d4_lanl2dz_631gpol_Fe2.opt
  C   -0.20234311764057     15.38940535704368      1.64725335151962
  H   -0.97651268334583     15.75214462101854      2.33665407707448
  H   0.61232891726840     16.12633167318794      1.65429958104518
  C   -0.72460544508514     15.26139017254402      0.23811743876021
  C   -1.62499379602162     16.16650715306129     -0.32507064207254
  H   -2.02064702974576     16.98203462705719      0.27688579726599
  C   -2.00556361677654     16.00741265940704     -1.66274880739872
  H   -2.70573011351316     16.70066623176373     -2.12291554781734
  C   -1.47666422988395     14.93337461380115     -2.38924596661064
  H   -1.75134737136395     14.76434305749067     -3.42732739936406
  C   -0.59272606135338     14.05769012632079     -1.76201577083811
  H   -0.17962233168032     13.18640358126096     -2.25893844697992
  C   -0.56585558375722     13.30920551807236      3.00741860246483
  H   -1.08047144670349     13.96150656434084      3.72701471130172
  H   0.05115958997251     12.57936786491414      3.54757672062429
  C   -1.52977968412212     12.55012512069278      2.14424375831779
  C   -2.82388589143667     12.23726089929543      2.54928219592253
  H   -3.18578768357265     12.58882829146058      3.51214961723130
  C   -3.63582780722650     11.46281670921218      1.70933586659130
  H   -4.64609199958584     11.19181481593381      2.00579563192261
  C   -3.12907012625615     11.05769400206614      0.47605054767922
  H   -3.70305437133250     10.47289006515567     -0.23608788298435
  C   -1.82887314026136     11.44297277325355      0.15097801925996
  C   1.67113170371321     14.32224970852917      2.84240829467148
  H   1.59503191424967     15.16143383295432      3.55080627453011
  H   1.92067988916155     13.40265744369126      3.38335301270399
  C   2.72615608011536     14.58611322705833      1.80537342640081
  C   3.87412773101604     15.31161098480882      2.11277959578838
  H   4.01067205658011     15.68618315864394      3.12436944472669
  C   4.83117218203411     15.54255269035736      1.12096242243890
  H   5.74751164002761     16.08642048730342      1.33704843857544
  C   4.56248940513655     15.09416680453973     -0.17229688127043
  H   5.23878571579861     15.28284448928100     -0.99940628232976
  C   3.37065872001832     14.40161121574381     -0.38838169986857
  N   0.37340695935267     14.08599688663024      2.13781483103136
  N   -0.21140068100463     14.21971923620803     -0.47102273647772
  N   -1.00657525590668     12.14341444256852      0.94505053458405
  N   2.47044668597679     14.07336312139071      0.55372215498547
  F   -1.35455831528867     11.10219052200023     -1.05549713797137
  Cl  1.82205621019245     11.38072401267650      1.95126397292761
  O   1.16849271733757     11.74098749014242     -1.01889660999854
  Fe  0.77614398740343     12.94377748358980      0.57750460049184
  Br  2.99484018315174     13.97293690684163     -2.27632571707276
  C   1.41253365243209     10.30098325668740     -0.90688752610761
  H   1.29719456092082      9.87021551649468     -1.90835142228152
  H   2.40804978722627     10.11562369338320     -0.49658156139440
  H   0.66418144255659      9.90387570548046     -0.22441662408546
  H   1.93951605122218     12.12393118463977     -1.48932825791337
