43
Coordinates from ORCA-job AQUWEP-oxo_1_1_tpss_d4_lanl2dz_631gpol_Fe2.opt
  C   -0.21405377513740     15.35551405838096      1.53460440533675
  H   -1.01034266521456     15.70978080628676      2.20313162168572
  H   0.59412863470008     16.09885203908693      1.57199501945441
  C   -0.69839804224691     15.25578659581952      0.10855347829197
  C   -1.55184727871308     16.19661386350981     -0.47292753743304
  H   -1.94460771535359     17.01502110125444      0.12655127807999
  C   -1.88420324829982     16.06818789935613     -1.82576447720482
  H   -2.54740485628688     16.78904104520192     -2.29852587474325
  C   -1.35633512752555     14.99656120165969     -2.55664947545204
  H   -1.59190532198136     14.85799267491822     -3.60844518025544
  C   -0.52249756368781     14.08393151121764     -1.91365917054186
  H   -0.09521077962680     13.21216925521130     -2.40015109115427
  C   -0.60736953651198     13.27828964038138      2.87096832130659
  H   -1.16985379667111     13.93395659826721      3.55056547329796
  H   -0.00519658535784     12.57843090475566      3.46455134915458
  C   -1.52509775760625     12.45501743070956      2.00509815259107
  C   -2.78092697700361     12.03371508789458      2.43089135115321
  H   -3.16557398353572     12.37033071075472      3.39010539654459
  C   -3.51889761683116     11.15842732328363      1.62117087842874
  H   -4.49548677956203     10.80153552204882      1.93908029798045
  C   -2.98847883841018     10.75399464606029      0.39858571079181
  H   -3.50842441523337     10.08452102169627     -0.27946487514088
  C   -1.73443079908786     11.24915751455126      0.03586169180735
  C   1.65986854572202     14.26703597868466      2.69876386627562
  H   1.61984352064979     15.11237691511625      3.40156191305840
  H   1.90108906040179     13.34820863954586      3.24576648454500
  C   2.71340085644159     14.48857471671262      1.64309639174309
  C   3.87764235921737     15.19772227588189      1.92141323591994
  H   4.01589943412804     15.63269820976199      2.90814826464844
  C   4.85519082524292     15.32251087430440      0.92877965181722
  H   5.78542048123844     15.85097609358984      1.12353404154726
  C   4.60445129665938     14.77899224260127     -0.32885354723206
  H   5.31376694732274     14.87311575920471     -1.14446931581683
  C   3.39185132721753     14.11288133711819     -0.54543686802007
  N   0.34541546361117     14.05421802029780      2.02486672606195
  N   -0.19947901163462     14.22035825541683     -0.60642857121178
  N   -0.99794891356719     12.06382591426516      0.80671328248771
  N   2.46889860844737     13.92387896668015      0.41767485123282
  F   -1.23416517307209     10.91850579701784     -1.14941556212110
  Cl  1.72169695680087     11.29271136838002      1.79332198563499
  O   1.09956000913255     11.96071290048400     -0.96483610963178
  Fe  0.77355000728077     12.83716605004854      0.37960368804980
  Br  3.06986222394430     13.51510123258007     -2.36463115296830
