44
Coordinates from ORCA-job AQUWEP-OH_1_4_tpss_d4_lanl2dz_631gpol_Fe2.opt
  C   -0.16914341045058     15.09013654841091      1.46737797743809
  H   -0.98506273176328     15.38059174896238      2.14288591310743
  H   0.59953743473693     15.87203548462509      1.53292430455585
  C   -0.65240661446966     15.02396319479640      0.03638257002963
  C   -1.53282737665945     15.96553845201270     -0.50148548156442
  H   -1.94337328008343     16.75133494140405      0.12898371394038
  C   -1.87120701000055     15.87977440858852     -1.85756087785721
  H   -2.55609007419335     16.60271776433367     -2.29547985106446
  C   -1.32473557984966     14.85405092754303     -2.63838471936527
  H   -1.56695457504819     14.75510819826167     -3.69308899346969
  C   -0.46124052687598     13.93870631286874     -2.03707493582600
  H   -0.01459834647181     13.09475428896354     -2.55656576703127
  C   -0.45114074280344     13.02624808276131      2.84432143953911
  H   -0.81348707611055     13.66045903269691      3.66658355473210
  H   0.15762611144534     12.21169190218748      3.25956941568632
  C   -1.58868862513551     12.41888418657123      2.06389604459867
  C   -2.87979788135151     12.26632272802940      2.56488545027291
  H   -3.13579810725797     12.64416092875668      3.55156891908440
  C   -3.83156776240957     11.60232314777667      1.77241262567143
  H   -4.84562246274604     11.45745033732311      2.13785963891698
  C   -3.47174787622466     11.13392708002177      0.50884785695081
  H   -4.16609031054324     10.61925007392649     -0.14824110464613
  C   -2.15407213560563     11.35923189871492      0.09934046041231
  C   1.74292562173115     14.07678663680712      2.64893646685271
  H   1.59304232852652     14.81360730865853      3.45256558046555
  H   2.07333621829009     13.12821458974666      3.09146153613271
  C   2.78265461896329     14.54949870062016      1.66154550497407
  C   3.86278828961498     15.34875647935906      2.03511442542617
  H   3.96074693374564     15.69185229963229      3.06242879772421
  C   4.81507451940458     15.68519169452570      1.06435135403863
  H   5.67705824822939     16.29562672539397      1.32442114592177
  C   4.64229962390673     15.24317803794172     -0.24900361964155
  H   5.34573517354534     15.49319518372492     -1.03663935427336
  C   3.51197921759300     14.46706179658872     -0.52896789575476
  N   0.45543382785024     13.80079039923245      1.93883901996128
  N   -0.13669162040203     14.03410116301629     -0.73063967358905
  N   -1.23040690304852     11.96566882951024      0.83781669667173
  N   2.61336680012763     14.10670431254341      0.38962887134715
  F   -1.76669130249785     10.96177236860593     -1.11701711770895
  Cl  1.94889821061883     11.05639743656687      1.46324787059733
  O   1.05605056689515     11.69223534089443     -1.25816272937302
  Fe  0.86280793688240     12.61462823050653      0.24777582625128
  Br  3.21450309221972     13.90093063163680     -2.37009664881148
  H   1.49652755767549     10.83427016495062     -1.05712421132440
