105
Coordinates from ORCA-job ACIGAV_1_6_tpss_d4_lanl2dz_631gpol_Co2.opt
  Co  13.48826906520593     10.76974133242661     11.11263439765198
  O   13.90599040944979     10.40271226119304     13.15556201402288
  O   14.26035768139335     10.63382148618440      9.25507144608367
  O   14.21249989201150     12.38097320787275     11.44386299323553
  N   11.61900418303965     11.17737997711453     10.39294304616840
  N   13.10802092457251      8.66543295650059     11.02856369835308
  C   12.37188843673558      6.43101329133453     11.75889516403081
  N   14.23900627662989     11.18428543571705      7.00951456076748
  C   12.08624290930395     11.80594084143117      6.73810342936333
  C   12.23161093461704     11.40419778199474      8.07594090170742
  C   11.35414457863488      6.03011377498770     10.87399516174019
  H   10.76270639513203      6.78070627426736     10.35613553032340
  C   14.67144153751951      7.54768119782398      9.51336373226782
  H   15.38663525130958      7.49144528347204     10.33034633579544
  C   13.10761120067347      5.45921249046673     12.46300063033337
  H   13.88984512447398      5.77324142566389     13.15272369143667
  C   13.40058289781155      8.10002433874089      9.74708446256468
  C   11.22966352335804     11.26548909506548      9.09801263228691
  C   17.72377804961253      9.90503207577887      6.96425717147431
  H   18.61898015930029      9.94425768177408      7.58179216286823
  C   15.43259521466262     10.52935719145939      6.57234788143320
  C   13.15254902526340      9.59415150295263     13.77968773564482
  C   15.01707119124466      7.10968177247108      8.23639586983967
  H   15.99400494791364      6.68972381862866      8.01849401124499
  C   13.62733702522016     11.05539924133692      8.24295358010994
  C   16.57873821164659     10.59474697682829      7.37674713983186
  H   16.56697747286554     11.16488974059532      8.30027131334293
  C   12.67635636772440      7.86871752008179     11.99276354649136
  C   12.80500511302135      7.77314492703147      7.42077699956304
  H   12.11060045117951      7.84032793770857      6.58850080491006
  C   12.46333468120435      8.19406354284169      8.70411206902038
  H   11.48043899674091      8.61049852605150      8.90568167905691
  C   9.80289391523274     11.22705886327729      8.71216768398032
  C   11.08056951621259      4.67091378009042     10.69444192114299
  H   10.28194752577384      4.36588993823925     10.02105132345080
  C   10.76956097308982     10.79157084271572     11.43328165405557
  C   10.98433034152933     11.41884317422579     12.69077970082862
  H   11.67100355251564     12.26131621190611     12.73472014709017
  C   12.84555440388335      4.10016082708297     12.26167401138498
  H   13.42950525990853      3.35225498653384     12.79452190135490
  C   17.72870539722813      9.18105392488901      5.76386119517172
  H   18.62363965112125      8.64650519972613      5.45312045544054
  C   15.41920200466464      9.81474181047342      5.36520048464719
  H   14.50672178405991      9.74324186600182      4.77852365340447
  C   9.36913245528311     10.36225073022784      7.68322975287048
  H   10.09789245128583      9.73482524293208      7.16998382144849
  C   9.79527237946036      9.75489446509492     11.34393312454051
  H   9.58743378971494      9.28705377164439     10.38589043420870
  C   16.57900347016928      9.14382961450699      4.96380154041112
  H   16.56703378281625      8.56676457083551      4.04247885295823
  C   10.33346390482773     10.97979587912272     13.83192580391508
  H   10.48728340223855     11.46677390929350     14.78912183828425
  C   8.84789621253631     12.02396468614259      9.38178992010593
  H   9.17091052274819     12.69526942092923     10.17516844129519
  C   11.82981502682474      3.70466252559942     11.38035409186898
  H   11.61931448583146      2.64740484252233     11.23200570447613
  C   7.50099151063403     11.96378468486389      9.01929157348496
  H   6.77717399507188     12.59401421262492      9.53247386043883
  C   9.15261139041907      9.30115548968599     12.48344121194433
  H   8.44577014224253      8.47709301203517     12.44760376617338
  C   15.00683226138393     12.97519812374393     12.45047355862805
  H   15.79677570018938     13.55291644520790     11.94384049332476
  H   15.47739910781876     12.18171824883238     13.04963087351632
  C   9.46042651730635      9.87659675977419     13.73900609400686
  C   7.07888478063576     11.09706351964112      7.99878997121670
  H   6.02683433830771     11.04777551219167      7.72537649211236
  C   8.01680016712679     10.29448255153287      7.33402212090644
  H   7.69440562599203      9.61365483512830      6.54800631410519
  C   14.15902251204863     13.88764049162607     13.34399331298013
  H   14.80431438859365     14.38801459642382     14.07809077843909
  H   13.41381376052153     13.29662750502697     13.88848547306203
  H   13.65044698144131     14.65172737026050     12.74363003986354
  N   13.26763104727680     11.54882677259844      6.07929165705188
  H   13.60756059038417     12.15334135712252      5.32989029487226
  O   15.54261720143097      6.24797342644803      5.69964328612588
  N   12.78422043414016      9.75522548269089     15.09570623313910
  N   11.95277141922536      8.69614448518170     15.47125558947888
  H   11.10645363430512      8.97712344475203     16.02892694731028
  N   14.45808753297967      6.83435605767214      5.84664634844310
  C   14.08233169268334      7.24495921076085      7.20560681288399
  C   12.52756552679418      8.37963952700028     13.32412907764816
  C   10.96297052797282     12.45809410460124      5.99663560900304
  H   11.35265309195572     13.13437849240868      5.22374316423411
  H   10.33892440628113     13.03306453241339      6.68723507118068
  H   10.31570569192492     11.71858824518192      5.50494031630713
  C   13.17930153002157     10.77029360480639     16.01614259964424
  C   11.75616583729460      7.89018838879217     14.39018503515495
  O   13.67334704294150      7.12538003027755      4.92318659127297
  C   12.24214387350833     11.29703267744859     16.91866851328611
  H   11.21314573597213     10.94132502177973     16.92497817283416
  C   14.50509650665303     11.22909556870344     15.98792811071569
  H   15.21607660496551     10.79311323819619     15.29293055400258
  C   10.81747983757033      6.73183069807239     14.50723949181789
  H   10.11983176086927      6.87794363325016     15.33967088834516
  H   11.37851916080034      5.80325527397704     14.67685930951899
  H   10.24602893219497      6.60788415785077     13.58235827442118
  C   14.88762369714383     12.24553991302685     16.86870630984371
  H   15.91471637292269     12.60509819075630     16.85497096473925
  O   9.46367239958671      9.61925540167620     16.05418328070581
  N   8.93557622578835      9.28321322711008     14.92336196403160
  C   12.65006076091087     12.29931333694415     17.80578279056192
  H   11.93099751875643     12.70795952131551     18.51258143286606
  C   13.96578107860294     12.78035933557421     17.77916588773155
  H   14.27311299506854     13.56336753051099     18.46920128380074
  O   8.04625181290742      8.40372676068494     14.83152895152020
