106
Coordinates from ORCA-job ACIGAV-oxo_1_6_tpss_d4_lanl2dz_631gpol_Co2.opt
  Co  14.18351267617736     10.52683560185894     11.30468885954133
  O   13.37288008045828     10.40331669357387     13.23127864446683
  O   14.61591224273624     10.53506757392526      9.27938721231664
  O   14.27537136086909     12.38185587580441     11.48956161706492
  N   12.00066485610667     10.99013622829268     10.52673338920811
  O   15.74388318794578      9.96506720464522     11.76924574881838
  N   13.39516816230988      8.38374668005094     11.09040225405649
  C   12.29423732177901      6.25651023840135     11.59603654645944
  N   14.39700648128669     10.89746339788384      7.01142066974149
  C   12.20215615599287     11.37752425927231      6.84291724256948
  C   12.46534620629795     11.11402716065059      8.19252720507979
  C   10.91052448037136      6.01602536698951     11.67075469424988
  H   10.24682675133534      6.79939407390819     12.03483837889939
  C   14.78535606011888      7.72414930636440      9.20811570753393
  H   15.65194468818448      7.83886224826833      9.85405783489238
  C   13.15532491733106      5.24469777569330     11.13468044334082
  H   14.22575245556066      5.43080254221566     11.07759159669690
  C   13.50298030526678      7.95597384920741      9.74177563040666
  C   11.54054176791461     11.10332311509536      9.30834087986199
  C   17.99955865539517     10.03010047879756      6.82275039838069
  H   18.89749276658814     10.12898436535480      7.42949471970716
  C   15.64081389559931     10.40507133393849      6.51760717401142
  C   12.99099335131194      9.36527605156659     13.82278979954071
  C   14.92929277997186      7.39970020520973      7.86162354496210
  H   15.90355784256931      7.21858108667971      7.41848564695590
  C   13.88298630058537     10.83154596178596      8.30341297207585
  C   16.79362311534978     10.54684045956706      7.30639079408238
  H   16.73872878972059     11.03206404310020      8.27481296713307
  C   12.82975527677148      7.59976450346691     11.97385865022896
  C   12.50386484026271      7.59432806533124      7.56240639997009
  H   11.65032311599691      7.54675439830917      6.89233395254981
  C   12.36413998155421      7.87654630388852      8.91977021609998
  H   11.38188865339536      8.04734544781795      9.35208683758893
  C   10.07748764596382     11.21119392284574      9.02086959031910
  C   10.39099133417860      4.77826531073955     11.27567474107982
  H   9.31799238728533      4.60106474418633     11.32288379508315
  C   11.10458465847552     10.97820582982240     11.62344557188463
  C   11.15677253492393     12.04724583339637     12.53942836448490
  H   11.84940923640341     12.86218706177041     12.34903034724290
  C   12.63332971470987      4.00223371799042     10.75939264344980
  H   13.30403162242692      3.21824257369989     10.41337133074118
  C   18.06132917524668      9.40115213418218      5.57092154320585
  H   19.00588817087690      9.00364584464245      5.20590779664001
  C   15.68326027664049      9.77957788684663      5.26220898273371
  H   14.77376488167622      9.63279379819508      4.68280022755593
  C   9.43623985575594     10.19040066520798      8.29568837555728
  H   10.01901680628836      9.35127942330111      7.91862001337351
  C   10.26822944716567      9.87285101383842     11.86770085487655
  H   10.22800235567679      9.06316287029822     11.14381005886036
  C   16.90300719641829      9.28145127893207      4.79298955134962
  H   16.93362957955769      8.77581539634669      3.83093319633615
  C   10.36440837328382     12.02219206575700     13.68309432288630
  H   10.38091005761116     12.82964770122384     14.40872767455783
  C   9.32795058116002     12.29993762848457      9.50145734693372
  H   9.82256040472523     13.09022478688211     10.06218075556315
  C   11.25239889905351      3.76903258601294     10.82367255979910
  H   10.84926773588480      2.80396317574319     10.52309308827629
  C   7.95324911138724     12.36663611005746      9.25061807793928
  H   7.37971197040092     13.21653517996794      9.61524476849209
  C   9.50462790331421      9.82078968309126     13.03233919050180
  H   8.86087370868726      8.97648399552937     13.26161144323323
  C   15.38352592387717     13.03700473962462     12.07126026618642
  H   15.92711784018892     13.54772887573585     11.25531725753206
  H   16.06782929867401     12.29932534206174     12.51980615840508
  C   9.56235913847128     10.89915270272557     13.92098440271765
  C   7.31538824848989     11.34139107527069      8.53818943432076
  H   6.24435745472026     11.39278418675800      8.35244824552322
  C   8.05763327051272     10.25086147493674      8.06452579759116
  H   7.56492618829038      9.45123451385546      7.51418730555295
  C   14.90384575053536     14.07101285439105     13.09811760932800
  H   15.76524307883236     14.57907909199136     13.55299580059549
  H   14.32622721717923     13.57696093004189     13.88905091698003
  H   14.26586347136994     14.82456060345283     12.61908274304944
  N   13.34823737692874     11.15211673459794      6.14216329988133
  H   13.58728935583652     11.62042488199206      5.26974968089071
  O   15.01761950991950      6.64510576533051      5.22124947429230
  N   12.70891745007617      9.36640901734097     15.18639049821291
  N   12.20184866525711      8.11990890056379     15.52336446643591
  H   12.31911204283242      7.83125896724359     16.49328444593971
  N   13.93815979716377      7.11385667596041      5.61764687442493
  C   13.78557614218704      7.36101570003400      7.05486700944508
  C   12.70160171148612      8.02595944103785     13.34990406844831
  C   10.99562448338045     11.86297425555636      6.09832236293020
  H   11.29598492277269     12.33882708180138      5.15608868400981
  H   10.43609234076002     12.58634920809078      6.69883282633008
  H   10.31656355509403     11.03489988789779      5.86012753542811
  C   12.50033968744962     10.48716760214226     16.04345717687031
  C   12.28190820228306      7.27729926190412     14.45779175344437
  O   12.97955544084387      7.42344171185614      4.88108334548382
  C   11.38522500420582     10.50942808359907     16.89324269432008
  H   10.66326610557180      9.69526549809687     16.87928918447454
  C   13.41565560607641     11.54906900899505     16.00027837499277
  H   14.27890316358014     11.49688896931495     15.34506091847874
  C   11.96977103353898      5.82680132615406     14.66778209011225
  H   12.04179307562979      5.57080377949753     15.73238941853134
  H   12.66393720124886      5.19657582728285     14.10337790560160
  H   10.95536745059897      5.58867333653742     14.32539388770325
  C   13.18201391363518     12.66415830231475     16.81120361584619
  H   13.88215709899596     13.49683441751577     16.78329562199251
  O   8.62843016684784     11.88575991356279     15.80341081124482
  N   8.77722854477331     10.83577646177756     15.15659442251602
  C   11.17719767781823     11.62837764980722     17.70666770111811
  H   10.30087648385740     11.66234129918341     18.34907794583650
  C   12.06856079725945     12.70791971809200     17.66308248760127
  H   11.89645384266633     13.58036839000031     18.28972882897144
  O   8.33148011998673      9.72015241816354     15.49553980895724
