105
Coordinates from ORCA-job ACIGAV_1_2_tpss_d4_lanl2dz_631gpol_Co2.opt
  Co  13.42862316439092     10.40928808185677     11.12837084018245
  O   13.58717417276486     10.41190240823194     13.10355487295658
  O   14.23540662142644     10.43843870446753      9.32657124462050
  O   13.71476170305026     12.22281648860882     11.21333073190418
  N   11.57735824759713     10.85057908812499     10.47107969288627
  N   13.11608076507744      8.45545395411926     11.06597278869165
  C   12.62749042127287      6.18182715111174     11.88254759153702
  N   14.24099845714703     11.31286414229152      7.19089478708071
  C   12.13261079991072     12.10077413475527      7.02822217525923
  C   12.25678525152242     11.51833913822045      8.29468630220303
  C   11.75770655300439      5.62473715467780     10.92597157884417
  H   11.15750830886160      6.27726411139072     10.29663227789580
  C   14.69586592490017      7.31640701073711      9.56592727469859
  H   15.37936654168586      7.18763436321942     10.40149982300156
  C   13.38754959454807      5.33182058588376     12.70928759295782
  H   14.06157284388869      5.76488715217489     13.44735526803196
  C   13.43964884077420      7.90451183588104      9.78500295320524
  C   11.23481942808454     11.32646838504300      9.30023457848006
  C   17.62283503531878      9.81649778370993      6.89924465549599
  H   18.53785326861161      9.74380664803902      7.48376813583548
  C   15.36799975728004     10.61854144470965      6.64608584494260
  C   12.95903209846919      9.52662844340760     13.75714468787855
  C   15.07243921946431      6.94230244057390      8.27638531084802
  H   16.04339553785773      6.50411054475921      8.06758137652034
  C   13.62316489495111     11.04189047999108      8.40789467874651
  C   16.54100822766991     10.54213260279784      7.40913111970766
  H   16.59390051070802     11.03260521151274      8.37627156542347
  C   12.75614147181127      7.65364384012109     12.05114018080961
  C   12.91375175291485      7.72518238180480      7.42531595902177
  H   12.25381525548428      7.86556003769271      6.57455472698150
  C   12.54405786329484      8.08895239343887      8.71668364202711
  H   11.57887826421387      8.54954740696395      8.90894086870812
  C   9.80899630091075     11.61666163146275      8.98322921207782
  C   11.65230411126358      4.23621320354831     10.80009496417115
  H   10.96980436548212      3.81125077193950     10.06662796328773
  C   10.65834012994316     10.50745875088024     11.48068277848630
  C   10.72715227322364     11.20273836158772     12.70797680959108
  H   11.39254358874134     12.06022597897518     12.78184189811700
  C   13.29333830082516      3.94385729017614     12.56604913069283
  H   13.89730969989211      3.29276730219133     13.19519703781504
  C   17.53876812834600      9.19823214975155      5.64396726423246
  H   18.38358565311050      8.63306749648546      5.25689474331439
  C   15.26363712651590     10.00505961903363      5.38901711424862
  H   14.32872033621029     10.04076799881302      4.83476270148284
  C   9.15152483024275     10.88445150439624      7.97698462447133
  H   9.69978657817007     10.13095219056152      7.41110062502519
  C   9.80142423920450      9.39250874527971     11.33876323323175
  H   9.72388468215453      8.89098079651908     10.37744745613455
  C   16.36372365481725      9.30101666886341      4.88781974007830
  H   16.28273240287979      8.80065868422253      3.92601134415061
  C   10.02547169539612     10.72851984298977     13.80981535374385
  H   10.08467200577169     11.23141806070695     14.77015341466489
  C   9.09967246376801     12.57931986543279      9.72431363329083
  H   9.61174823650163     13.14519532417115     10.50024517238384
  C   12.42275626998654      3.39440997371146     11.61434625245948
  H   12.34394736547010      2.31422879279765     11.50848550056485
  C   7.74878538044795     12.81559957407098      9.44794854387672
  H   7.20645630835521     13.57044504618880     10.01391718177929
  C   9.09406565468991      8.91739581862833     12.43671282829739
  H   8.45614154800922      8.04084982825472     12.37067420389747
  C   15.05038025673816     12.52059220444834     11.55301635348224
  H   15.70528250906296     12.52354458518286     10.65770102269540
  H   15.46007686973929     11.76450359207454     12.25369838328422
  C   9.25542701529254      9.56121436696864     13.67373871871589
  C   7.09504209619414     12.08175551708598      8.44827122870960
  H   6.04236841261494     12.26330089741276      8.24056478415092
  C   7.79587548032478     11.11217360095413      7.71696259054184
  H   7.28717484597466     10.53434560956383      6.94742982888840
  C   15.09416853143539     13.89333225249765     12.23865529268338
  H   16.12916311322642     14.17471884101731     12.48044178472643
  H   14.50373102393043     13.86842059517720     13.16361744748764
  H   14.66885744126215     14.65891677315219     11.57684556055722
  N   13.29033632743134     11.87309788488614      6.34195978650473
  H   13.65526146726551     12.50488399712809      5.63010999741624
  O   15.69560690510541      6.28109355112819      5.70153797962122
  N   12.56881341114522      9.70160220631030     15.06905063554413
  N   11.88247427406623      8.56001172212696     15.48355232147788
  H   11.06927490485215      8.72976654525756     16.09110457113425
  N   14.59586493601039      6.83730470932336      5.85465375184691
  C   14.18125679066636      7.16781198048557      7.22340137142803
  C   12.50281422886593      8.21865858092010     13.35636275582580
  C   11.04813558198031     12.90097832622336      6.37309747906668
  H   11.47064842005089     13.56138932058625      5.60513736973077
  H   10.52148259979565     13.51008552913414      7.11364949816539
  H   10.30708274932061     12.24949682409924      5.89263964570840
  C   12.78587589425896     10.81671571478019     15.93039319965171
  C   11.77862545527896      7.69466977386311     14.43101223105803
  O   13.82794422670241      7.16296507449824      4.92855733064374
  C   11.82718793160469     11.14982965346739     16.90121140039520
  H   10.90506805276707     10.58167318949985     17.00294867981400
  C   13.95487310486686     11.57847745336533     15.77258440251004
  H   14.68249122770024     11.30911182798315     15.01503429813286
  C   10.96571683029278      6.44789322553449     14.59261048564727
  H   10.19860460680437      6.57936838370383     15.36537580837094
  H   11.60418694361539      5.60309795602404     14.88253827596916
  H   10.48095551316817      6.18365101683172     13.64807525001251
  C   14.15315247346360     12.68979866774906     16.59752777747361
  H   15.05642429958183     13.28426600279356     16.47633228773500
  O   9.13522346253380      9.29313618293936     15.98100006959302
  N   8.68293992989750      8.93991642431505     14.85357628060184
  C   12.05538165699069     12.25337793228628     17.73035400061965
  H   11.31689684644514     12.50992817807840     18.48699441046024
  C   13.21265779877889     13.02796696162537     17.57976894768593
  H   13.38016382665670     13.88890800350374     18.22335378432209
  O   7.82643559794782      8.05338154205066     14.70818506695386
