74
Coordinates from ORCA-job CABXUA-CH3OH_1_3_tpss_d4_lanl2dz_631gpol_Fe2.opt
  Fe  6.36683989402437     -0.03295717804562      0.37274060437307
  F   4.74958546647825      0.73751842339412      8.44635152093841
  C   5.94495279436777     -0.59592525321152      2.13194615167635
  C   9.04776299894844      2.05946183858108      0.42356817291036
  H   10.07725909241942      2.24684325163985      0.75992095698360
  H   8.96295155206708      2.35690507624910     -0.63001960803105
  C   5.60955330467767     -0.95847780248523      3.28008359952856
  P   8.64267459016857      0.24912796364241      0.49943469989232
  C   5.22418919775761     -1.37387785864525      4.58130843465996
  F   5.73193300931856     -1.01250495795711      9.32539463674846
  C   5.63363562103169     -0.65046210084350      5.72709529649448
  H   6.26139985472032      0.22865280071850      5.60876486325681
  C   5.24825500879503     -1.07022591020128      7.00144751472148
  F   6.86033611851552      0.34602587267271      8.01541535973202
  C   4.45125109665351     -2.21023787305997      7.16948624615091
  H   4.16747511562277     -2.54034308898595      8.16462025893810
  C   4.04065819802072     -2.93121838832167      6.03961524351261
  C   4.41971927955154     -2.52579136562240      4.75962406589903
  H   4.10604939001529     -3.09944023518096      3.89159868150117
  C   5.65214802548368     -0.25207479705890      8.20516702533021
  F   3.36831258907699     -4.77245289453603      7.37722878140340
  C   3.13691027020472     -4.12961831047684      6.20546274818240
  P   6.30486458140100      2.17279077348948      0.88869198011905
  F   1.82756676374663     -3.75954691574460      6.19511803232801
  F   3.30792588385709     -5.02591943216929      5.19429514375971
  C   8.01720839050494      2.80295606460363      1.28858394632806
  H   8.06437826254479      3.89028880719317      1.13773732733289
  H   8.19807548771805      2.61062806851022      2.35594074971471
  C   9.22108126667470     -0.25041778866259      2.17577542615288
  H   10.27522903244160      0.01927924174200      2.32831314776378
  H   9.10121199134018     -1.33210079144339      2.30390836971014
  H   8.59410556052083      0.23649968443907      2.93081923687344
  C   5.76040155556478      3.29492342563160     -0.47083503820604
  H   4.70643734374452      3.10442364460429     -0.71235532146610
  H   6.36239138974265      3.07249320658990     -1.36073749734871
  H   5.87258643350833      4.35151373112540     -0.19168150584048
  C   5.34269559441853      2.72661144170455      2.35620546282087
  H   5.57015806619699      2.05953726984108      3.19598315688252
  H   4.26617232163705      2.68043935890486      2.16365954160382
  H   5.60744486601930      3.75990435732907      2.61839077779452
  C   9.88386837097079     -0.51113749416236     -0.62985404835371
  H   10.89096686380680     -0.14590865104521     -0.38693416264691
  H   9.63753801563829     -0.23428228143511     -1.66122686416750
  H   9.88128596786792     -1.60392741030671     -0.53300489722669
  O   7.50582630523741      1.16199833499413     -2.34987109256512
  C   3.71747262228629     -1.95909588488525      0.12302655946221
  H   2.69589751659349     -2.17373983214674     -0.22055249668557
  H   3.75409021026333     -2.07798777770658      1.21404490982865
  P   4.18000536521588     -0.19137139240586     -0.20172977973800
  P   6.47876423716990     -2.16087935109820     -0.35526245806285
  C   4.75221949723987     -2.87339733133276     -0.55260853039238
  H   4.71513787774129     -3.89410246464052     -0.14970416460902
  H   4.55028562290558     -2.94424657691269     -1.63096694148834
  C   3.66150874051261      0.09325255873127     -1.95541885817877
  H   2.58704278775945     -0.09214251870677     -2.09141384706021
  H   3.88253893928557      1.12843800017835     -2.24514326411489
  H   4.22375046658734     -0.57069425048106     -2.62457002101448
  C   7.31613515462845     -3.32855902971686      0.79838635235794
  H   8.38765218616605     -3.09873007275161      0.85593780614352
  H   6.88184743621629     -3.20521318801269      1.79697592623312
  H   7.20083500570065     -4.36788433371419      0.46240317296298
  C   7.23119993955458     -2.61259308632816     -1.98661894174413
  H   6.72807461793975     -2.06298345048232     -2.79254621255699
  H   8.29694611908088     -2.36107347199824     -2.01455102468652
  H   7.12030699132751     -3.68941285842894     -2.17614001492178
  C   2.90118610758570      0.73159525887465      0.74797014713467
  H   1.89979442345990      0.35105068458398      0.50461645491903
  H   3.08805532598291      0.59737011992022      1.81995138107830
  H   2.92950180585690      1.80169061395019      0.50883031312950
  C   7.30415930427998      0.92371070057201     -3.75507558292232
  H   6.24401452392924      1.00945672706535     -4.03616136803807
  H   7.87199159711432      1.69873497677638     -4.27752975096908
  H   7.68484518740286     -0.06232640774327     -4.06119638493872
  H   6.98948760718890      0.49157978084166     -1.83582050729410
