68
Coordinates from ORCA-job CABXUA_1_5_tpss_d4_lanl2dz_631gpol_Fe2.opt
  Fe  6.25261928387876     -0.07550462940882      0.25154742748301
  F   6.56422637347444      0.54481860126463      8.51727402126221
  C   5.90362261220808     -0.56763708191539      2.07571413632950
  C   8.74374909060712      2.37519024872258      0.80969538256527
  H   9.69188345222092      2.54329736571436      1.34024565645928
  H   8.75802191991952      3.01536640277843     -0.08519275788355
  C   5.66578245767127     -0.86136738581188      3.26410192060690
  P   8.61831914285060      0.60116058912131      0.24534205568999
  C   5.39121327524606     -1.19984397104196      4.61588866917175
  F   6.91674879818168     -1.52859743738669      9.13040802292008
  C   6.27552495208009     -0.81004374430073      5.64790551589542
  H   7.17472882574571     -0.25025207151687      5.40581354467447
  C   6.00149557107182     -1.15729565195233      6.97203461899998
  F   8.21148902559452     -0.58747982122041      7.62294179714194
  C   4.85508289555785     -1.89364392361892      7.29760774100745
  H   4.65734951454207     -2.17516967299286      8.32781670775700
  C   3.97657685551772     -2.27934853555434      6.27679292054622
  C   4.23336358220973     -1.94096088764155      4.94723024302998
  H   3.55127827697114     -2.25552784203997      4.16224469448882
  C   6.92868898204855     -0.68645099778670      8.06776942661371
  F   2.86785202819955     -3.79509508451047      7.72739559973440
  C   2.70979154579244     -3.02750536298675      6.62074352275361
  P   5.92482884026651      2.37384731072891      0.83588260620913
  F   1.68571589372044     -2.16604657102985      6.86364805517900
  F   2.31962404047601     -3.83783830709752      5.59883714994836
  C   7.53663035533117      2.73336456606072      1.70691010121842
  H   7.58358252720717      3.78618120714707      2.02123168457672
  H   7.54328974284630      2.11500174764173      2.61730967050829
  C   9.40540683839512     -0.32756877432879      1.63494157923524
  H   10.42759950934427      0.02528609578844      1.82922785753017
  H   9.43699200715499     -1.39769845607234      1.39277492830608
  H   8.79406270050209     -0.21067887459474      2.53735760361699
  C   5.79092879926046      3.79838982838100     -0.34644577311583
  H   4.81117068400684      3.77551526961189     -0.84158872788185
  H   6.55938654390042      3.71779494193856     -1.12596082973244
  H   5.90273582597747      4.76405927970473      0.16591481838503
  C   4.68111408270531      2.80832591754875      2.13024416280678
  H   4.72135759642181      2.05550125969757      2.92655999369938
  H   3.67160111836418      2.79902201606487      1.70029585543020
  H   4.87176870363815      3.80322740543606      2.55517585058170
  C   9.88063853117484      0.48312897692551     -1.09894864444529
  H   10.86042960460687      0.84547701684266     -0.75934071890357
  H   9.56269342064537      1.07510623320642     -1.96654892828096
  H   9.98276551365455     -0.56161075053348     -1.41832077601288
  C   3.92527538412247     -2.23820588534263     -1.20037709414510
  H   3.07001421724982     -2.43111471281270     -1.86402555511483
  H   3.70438768611074     -2.71999384225776     -0.23644819509108
  P   4.10769946674109     -0.41196820814162     -0.87317230701249
  P   6.69303756848279     -2.40387068649907     -0.70697572397093
  C   5.22945554762467     -2.81503917497155     -1.79691445364514
  H   5.14745039035375     -3.90319124280664     -1.93273589890200
  H   5.41908545203156     -2.37833702454505     -2.78955476864837
  C   3.71251227798687      0.34207521798396     -2.51582382791512
  H   2.71926109747416      0.03406486312456     -2.87032493726719
  H   3.73871403982255      1.43655845801194     -2.43807739289947
  H   4.46399439883874      0.04045106201886     -3.25681909430019
  C   6.50262615690590     -3.62701936046867      0.66732915974916
  H   7.36375707786189     -3.55614563427139      1.34370416922257
  H   5.60955757445895     -3.38458214589237      1.25467793792838
  H   6.42812751339530     -4.65413322314089      0.28411461845007
  C   8.10376320283118     -3.12439591982258     -1.67000274525541
  H   8.27115402308268     -2.54478836064590     -2.58704560302790
  H   9.02108318230076     -3.08682646635248     -1.06761460912059
  H   7.91055912680054     -4.17101675768219     -1.94272182433439
  C   2.62336296325390     -0.01213366449491      0.14469537500271
  H   1.70755887532315     -0.42911870885724     -0.29558521699832
  H   2.76150833406450     -0.41524885539763      1.15544683539952
  H   2.51012310169144      1.07638382828116      0.22397276578983
