68
Coordinates from ORCA-job CABXUA_1_3_tpss_d4_lanl2dz_631gpol_Fe2.opt
  Fe  6.29338861315445     -0.07493765412864      0.11132521297111
  F   5.85430539108448      1.15316424240566      8.24799015875703
  C   5.96346401682437     -0.56535698450380      1.91822730384284
  C   8.74272556778896      1.94859900851655      1.34807038291624
  H   9.49855274666792      1.84924169240138      2.13853056319301
  H   9.13966590307127      2.65723582384305      0.60732588257396
  C   5.72249895413401     -0.82902524829507      3.11594239979730
  P   8.49676819598352      0.30519209307273      0.47561615430237
  C   5.43097728131077     -1.12778566942298      4.47281558983817
  F   6.59455351219187     -0.72577495128193      9.09684046998540
  C   6.11149348875795     -0.46412977073185      5.52165259979347
  H   6.87351987879945      0.27313218532302      5.28321480415416
  C   5.81694839036974     -0.76037455907148      6.85368554812016
  F   7.78148270441480      0.34969137817632      7.58943973001689
  C   4.84740846138710     -1.71897310963598      7.17584062225753
  H   4.63424807774895     -1.95792860211694      8.21377327597620
  C   4.16906708358785     -2.38067616267127      6.14280268895387
  C   4.45163564478525     -2.09486829366203      4.80663797499589
  H   3.92818189068313     -2.62224407299151      4.01386708653292
  C   6.51654524768109      0.00082037673905      7.95447994562080
  F   3.35360751172912     -4.03300834438027      7.63735048261451
  C   3.08401534167573     -3.37478681428825      6.48209742015726
  P   6.08072286341571      2.12553692478755      0.64356756340073
  F   1.88400879567252     -2.75259553366659      6.63913083014120
  F   2.93012772496045     -4.30156379945513      5.49669709371463
  C   7.40220679023302      2.45483802716198      1.90351248004577
  H   7.44515116002000      3.52051137210292      2.16864448581661
  H   7.11315393313022      1.88255500034277      2.79556828968573
  C   9.31385772226980     -0.91222820982195      1.59111187794817
  H   10.33378672622454     -0.59344987827731      1.84495050448689
  H   9.36678349386477     -1.89422570241072      1.10418904827171
  H   8.71344111398928     -1.01185973894831      2.50268145951461
  C   6.38044873409463      3.38974519018266     -0.67249835800499
  H   5.60003106288840      3.31240647835921     -1.44018065329820
  H   7.34502345072659      3.20190176523541     -1.16050207131846
  H   6.37571868121029      4.40958374351055     -0.26350652398786
  C   4.56730627763025      2.76138194116561      1.47612812771587
  H   4.29690566309940      2.08725382698632      2.29736369479400
  H   3.72954887072116      2.82357934016687      0.77059466657573
  H   4.75203414869785      3.76618144995669      1.87963335416602
  C   9.70352614429128      0.45272016405254     -0.91904125657003
  H   10.68793500321790      0.76509245456635     -0.54352290265831
  H   9.34518697586677      1.19741027194278     -1.64102559046600
  H   9.81805764518951     -0.50200479891639     -1.44380922022728
  C   3.86234359056145     -2.13465472596157     -1.05801795116766
  H   2.94749342464279     -2.20466938506313     -1.66264878440871
  H   3.71439302548792     -2.75408124557799     -0.16179417809167
  P   4.13004493314545     -0.38082184575136     -0.47678266979583
  P   6.59919073618965     -2.13810785521540     -0.82215453784367
  C   5.10469732209063     -2.60438098194518     -1.83118064835718
  H   5.08465045635564     -3.68582237900259     -2.02637789486406
  H   5.17613653201832     -2.08954763313717     -2.80053738820568
  C   3.50078694987842      0.62213829584773     -1.89870757740749
  H   2.46671367654116      0.35357845650023     -2.15490827324714
  H   3.53385204539896      1.68961723300746     -1.64443373740193
  H   4.14123596376927      0.46585333373324     -2.77601898957637
  C   6.64017636549463     -3.44669362043266      0.47410012661285
  H   7.53702846257250     -3.32734849143737      1.09252410906810
  H   5.77521672324863     -3.32940620068828      1.13636040886150
  H   6.64006644587593     -4.44937265765829      0.02499703791941
  C   8.00086468933286     -2.62326601814692     -1.92295516569629
  H   8.09023561104673     -1.92265585622809     -2.76215112496946
  H   8.94404127760790     -2.62065636349677     -1.36227962333313
  H   7.84004483590359     -3.63546745521285     -2.31817527028497
  C   2.80655973232245     -0.20168454057488      0.78923499832436
  H   1.87065314891267     -0.64585403571786      0.42440546096374
  H   3.12769494394148     -0.70995990355187      1.70594474739148
  H   2.62366222241432      0.85158702339204      1.02454372839207
