69
Coordinates from ORCA-job CABXUA-oxo_1_5_tpss_d4_lanl2dz_631gpol_Fe2.opt
  Fe  6.20843109237282      0.33505902429790     -0.05359212675025
  F   4.86628111270422      1.11387262617838      8.08839406648055
  C   5.85708835112439     -0.33060906495972      1.75111149702857
  C   8.96692655602721      2.08087964601044      0.86901629317708
  H   9.96830652518735      2.09495729353205      1.32288899367809
  H   8.99732454189107      2.74689159439421     -0.00518308685673
  C   5.59127673172607     -0.67630938255520      2.91484603006994
  P   8.58565470681234      0.36882458921103      0.24111895253338
  C   5.28181891559029     -1.07093488282455      4.24531259494516
  F   6.03923807810398     -0.53296382417639      8.93138504679241
  C   5.71118285725235     -0.29210317281686      5.34474391161524
  H   6.29314485670631      0.60932920843701      5.17171709694360
  C   5.40527661294274     -0.68557887046357      6.64876899314711
  F   6.96799119356298      0.87425391097856      7.52098049795922
  C   4.67198668529142     -1.85428975909325      6.89148551192557
  H   4.45128563021336     -2.16435150292007      7.90878988956098
  C   4.24345055783261     -2.62871389317836      5.80541040234359
  C   4.54109647923937     -2.24910702817304      4.49533610831397
  H   4.21037588094753     -2.86479056269754      3.66310589926331
  C   5.82463008618318      0.19083648967522      7.80539300066245
  F   3.71507229839294     -4.45109832380618      7.23065877980729
  C   3.40665519273612     -3.86236133030696      6.04888975184223
  P   6.21397507143724      2.55514869431639      1.09332861646448
  F   2.08160559490052     -3.55613938379970      6.07860066260682
  F   3.58298838403961     -4.78415971663758      5.06156189552648
  C   7.89870608594551      2.56145409395636      1.87585875337285
  H   8.14337789526033      3.56584162543487      2.25040378790232
  H   7.85105559449268      1.88361401200556      2.74077673053449
  C   9.41232992867729     -0.74612759306146      1.44865450676923
  H   10.44183867172933     -0.42264043305621      1.65309695492073
  H   9.44455094315632     -1.76756381542518      1.05062297755055
  H   8.83569453175512     -0.76127069195114      2.38120076260567
  C   6.22682434975336      4.01233075035640     -0.03150553078764
  H   5.21350534267918      4.18085308155596     -0.41780209382653
  H   6.87073358499795      3.79088743291828     -0.89089747881727
  H   6.57211076128059      4.92470133723713      0.47333182107676
  C   5.09471374618227      3.02491500237656      2.47893739709481
  H   5.04769919966743      2.19539108922393      3.19423144651893
  H   4.08314050977453      3.20918644324848      2.09577691395615
  H   5.44704164055318      3.93196597993824      2.98866456276831
  C   9.55976641396824      0.24931191110321     -1.30854837686955
  H   10.60011022115680      0.56702979925726     -1.15827098560434
  H   9.07610078795619      0.88737541674465     -2.05801833316645
  H   9.55385050800156     -0.78079437278468     -1.68299410079010
  O   6.41103717221836      1.08571335079776     -1.53930052062653
  C   3.86045591976561     -2.24312039997369     -0.54647865726154
  H   2.88719675702878     -2.55212572219062     -0.95429565941991
  H   3.88389387953100     -2.52182239126183      0.51656601731624
  P   4.03484961033969     -0.40675121873383     -0.63441507730508
  P   6.67662117385275     -2.34136980079735     -0.64023322665261
  C   5.02393474866919     -2.90650014451292     -1.31205140336233
  H   4.95340346921997     -4.00215415913630     -1.25039619161253
  H   4.98241188648776     -2.63885672282238     -2.37797220056135
  C   3.56433990644714      0.05241509531134     -2.34610057334973
  H   2.56718877337716     -0.32484123128341     -2.60928114568355
  H   3.58043602553258      1.14494875861220     -2.43753816835380
  H   4.30984312533157     -0.34192977676109     -3.04627562343549
  C   6.83568506275297     -3.43713510965094      0.84291599645697
  H   7.83904276410527     -3.35056526495923      1.27639933372770
  H   6.12104300628390     -3.11592046736379      1.60882528653668
  H   6.65488982440963     -4.48868093745826      0.58052901658959
  C   7.83278843670988     -3.15256617783220     -1.84491903573992
  H   7.80353211468281     -2.62453176030935     -2.80654399116945
  H   8.86196717256894     -3.11585921654803     -1.46418337964494
  H   7.56549398209691     -4.20615708271123     -2.00722043622881
  C   2.71235568008331      0.26919373183781      0.44561433623506
  H   1.72572446461023     -0.11779174643567      0.15712959851922
  H   2.93139684907050     -0.00383460737102      1.48442047179630
  H   2.69665348461697      1.36363955385365      0.36781623893997
