74
Coordinates from ORCA-job CABXUA-CH3OH_1_1_tpss_d4_lanl2dz_631gpol_Fe2.opt
  Fe  6.31636534030294      0.02267315649167      0.02541429098656
  F   6.65960241948547      0.59863089471407      8.23219763639149
  C   5.95487668667110     -0.49997064692612      1.78325817311373
  C   8.66225715991797      2.01829210539295      1.43477804470662
  H   9.49706350610145      1.99731277413221      2.14832140271734
  H   8.91574677439735      2.75247992804103      0.65574506865146
  C   5.70849411985004     -0.77483867637241      2.96887770961413
  P   8.47017381968544      0.35607032124674      0.59475641360019
  C   5.42710956852456     -1.10891477309191      4.32344726186215
  F   6.96148641905156     -1.48356001448068      8.84076029453425
  C   6.31877207869671     -0.74932967139004      5.36098023437485
  H   7.23481718841532     -0.21537633424329      5.12102248572542
  C   6.04029279245691     -1.08804406500975      6.68707713927352
  F   8.27011453011900     -0.57514178979358      7.32580011225389
  C   4.87448763363977     -1.78875077553234      7.02150280756129
  H   4.67037842423375     -2.06262614684208      8.05221476810620
  C   3.98633843913784     -2.14650611475763      5.99973729080502
  C   4.25210867215373     -1.81627325402341      4.66869707185115
  H   3.55673459267344     -2.11509422020116      3.88832311148280
  C   6.98503860457882     -0.64281116817407      7.77587142968874
  F   2.80531966291517     -3.59175776254169      7.47033004329792
  C   2.69540519803806     -2.84926118482294      6.34008494138018
  P   5.95209530607524      2.05723526977091      0.91904800165620
  F   1.68683185164372     -1.95517281219109      6.53844220386354
  F   2.29712477804372     -3.67795359054864      5.33347686617419
  C   7.33747497937132      2.39674761536454      2.11064954303913
  H   7.32495163184857      3.44692982356881      2.43394928113762
  H   7.15075105585455      1.76025693281506      2.98584573483389
  C   9.24501202273696     -0.79972098487732      1.80323284574222
  H   10.19255317377899     -0.39201289822282      2.17945200185604
  H   9.45261101889494     -1.76936597949586      1.33341143995023
  H   8.55054404795554     -0.95669427551769      2.63670353108210
  C   6.05629891686468      3.50432173758856     -0.24144817778048
  H   5.18444466665560      3.52041282442975     -0.91163517737622
  H   6.96305437213443      3.43349580144334     -0.85480939287177
  H   6.07137059192455      4.45443404128543      0.30945472939607
  C   4.47970821534163      2.49728547151556      1.93126145032037
  H   4.26733227027614      1.68350134225149      2.63271520397696
  H   3.60310062851555      2.67583168984014      1.29845758925193
  H   4.68669212475357      3.41588505544272      2.49682111768779
  C   9.76062162907247      0.47729953238571     -0.72466849877462
  H   10.72636912644568      0.77467955330685     -0.29356160815472
  H   9.45869929709608      1.23159654722075     -1.46189061889925
  H   9.89240420922195     -0.48324111045102     -1.23698777044430
  O   6.69195449744094      0.92545576820811     -1.83719703036401
  C   3.96006476253313     -2.27238972772618     -0.71882303365550
  H   3.04840841733265     -2.47438278535197     -1.29827336821923
  H   3.82547387981942     -2.72351373781473      0.27493449508986
  P   4.16907772533196     -0.43514995689620     -0.44712016020218
  P   6.69567636565975     -2.15986268386243     -0.47742591190016
  C   5.21659295572626     -2.83976093309010     -1.39507600942135
  H   5.22528073179424     -3.93877266076034     -1.38865996489383
  H   5.27124397899502     -2.51550158583238     -2.44511913978108
  C   3.48663734738345      0.26767371626317     -2.02845567160065
  H   2.44875751837492     -0.05515456880087     -2.18603058394225
  H   3.49329679281775      1.36712949389204     -1.99735232649396
  H   4.07919774472665     -0.06488382995248     -2.89119618268511
  C   6.74973859461856     -3.30188065674899      0.97256140164516
  H   7.58149920744190     -3.04280535187837      1.63448811799657
  H   5.83038218948800     -3.19913144813384      1.55695554399383
  H   6.86347542018866     -4.33914423118036      0.62953645166610
  C   8.10995731351843     -2.83675693400761     -1.47168994869226
  H   8.16462161650721     -2.38384382777936     -2.46758349316554
  H   9.06121874709070     -2.65707885664447     -0.95487556737133
  H   7.98971703007964     -3.92201484917216     -1.59291838722589
  C   2.79007711825269     -0.11219366000488      0.73071189823988
  H   1.92412307577801     -0.73487841994887      0.46851919883730
  H   3.12637902113061     -0.36172583422817      1.74362300334527
  H   2.47916213534596      0.93720771183589      0.70609107186983
  C   7.02961945773505      0.17612419650268     -3.03195463694475
  H   7.03853777365938      0.84972001488616     -3.89650961347621
  H   8.03049032167209     -0.21947795549898     -2.86077653340873
  H   6.32006141157022     -0.64561569379431     -3.18923167984180
  H   5.87426730243396      1.43007511877926     -2.01595996704390
