8
inner aromatic rings
C     0.849100    0.795700   -0.157600
C    -0.029800   -0.197100   -0.848600
O     1.028200    1.041500    1.135000
C    -1.011200   -1.254800   -0.451200
O    -1.397700   -1.686200    0.744300
Fe   -0.328000   -0.478200    2.876500
Cl   -1.711500    0.516600    4.207300
Cl    0.859300   -1.680800    4.240600
