16
conjugated chains
C    -1.165500    0.797300    0.000000
C    -0.197100    1.745300    0.000000
C    -0.579700    3.237000    0.000000
C     0.388700    4.185000    0.000000
C     0.006000    5.676700    0.000000
C     0.974500    6.624700    0.000000
O    -1.746400   -1.673500    0.000000
O     0.715100   -1.143200    0.000000
Fe   -0.042400   -3.704300    0.000000
C    -0.782800   -0.694400    0.000000
Cl    0.268900   -5.134100    1.575200
Cl    0.268900   -5.134100   -1.575200
C    -1.477200    6.091100    0.000000
N    -2.581500    6.399700    0.000000
C     1.871900    3.770600    0.000000
O     2.771100    4.650900    0.000000
