21
only MM atoms
O    -2.130500   10.306900    5.246700
N     1.029700   12.790500    3.788100
N     0.260300   13.527900    4.252700
N     4.201700    9.129000    4.671400
N     5.202400    8.546000    4.544600
C     3.554400    6.900800    1.148300
H     2.749200    6.186300    1.337100
H     4.492800    6.483100    1.540000
H     3.667100    7.012300    0.061500
C    -0.685600   10.010400    3.311300
H    -0.577200    9.507200    2.342800
H    -0.644800   11.091100    3.149900
C    -2.026000    9.662300    3.984000
H    -2.845700   10.043500    3.366500
H    -2.152000    8.569800    4.092200
C    -1.093800    9.865000    6.125700
H    -1.181500    8.779600    6.308200
H    -1.247100   10.389000    7.074100
C     0.281400   10.239700    5.556500
H     0.326200   11.326400    5.458400
H     1.109000    9.904100    6.189100
