8
only MM atoms
N     1.029700   12.790500    3.788100
N     0.260300   13.527900    4.252700
N     4.201700    9.129000    4.671400
N     5.202400    8.546000    4.544600
C     3.554400    6.900800    1.148300
H     2.749200    6.186300    1.337100
H     4.492800    6.483100    1.540000
H     3.667100    7.012300    0.061500
