20
iterative search for aromatic rings
C     0.849100    0.795700   -0.157600
C    -0.029800   -0.197100   -0.848600
O     1.028200    1.041500    1.135000
C    -1.011200   -1.254800   -0.451200
O    -1.397700   -1.686200    0.744300
C    -1.693400   -1.993500   -1.624500
C     1.687000    1.691100   -1.088900
C     2.484500    2.657000   -0.562600
C    -2.546100   -3.004400   -1.365300
Fe   -0.328000   -0.478200    2.876500
C     0.105200   -0.114400   -2.373300
C     1.054600   -0.883800   -3.057000
C    -0.762000    0.747100   -3.089700
C     1.128900   -0.824200   -4.456000
C    -0.611100    0.871100   -4.479000
C     0.286500    0.046800   -5.165100
Cl   -1.711500    0.516600    4.207300
Cl    0.859300   -1.680800    4.240600
C     0.342200    0.107300   -6.698900
C     1.197500   -0.743600   -7.399500
