13
conjugated chains
C     0.000000    1.332200   -0.518800
C     0.000000    0.000000   -1.034100
O     0.000000    1.804500    0.725400
C     0.000000   -1.332200   -0.518800
O     0.000000   -1.804500    0.725400
C     0.000000   -2.559700   -1.495700
C    -0.000000    2.559700   -1.495700
C     0.000000    3.727200   -1.266800
C     0.000000   -3.727200   -1.266800
Fe    0.000000    0.000000    2.718300
C     0.000000    0.000000   -2.573700
Cl   -1.669500    0.000000    4.072600
Cl    1.669500    0.000000    4.072600
