37
Coordinates from ORCA-job CAXLIW-CH3OH_1_6_tpss_d4_lanl2dz_631gpol_Fe3.opt
  Fe  0.63372635802078      4.05334581265123     11.65776017874972
  Cl  0.87340030240267      4.90923274480980      9.57356720704326
  Cl  -0.82354350727796      5.55904335458665     12.60936420739901
  O   -0.92284328305001      2.69294490389979     11.09146755091093
  N   2.44555556624117      4.87864276703379     12.43767521412117
  C   3.58547918762742      4.16880409709823     12.21791812102960
  C   4.82403229548365      4.65089330844795     12.66274229523424
  C   4.88397828601639      5.88214733493936     13.32263167967610
  C   3.70582848794907      6.60848678224254     13.52384196541369
  C   2.50128974887329      6.06917096880702     13.06630487165412
  N   2.13838455585438      2.59309919785364     11.13554733823409
  C   3.41695982289681      2.90561590960738     11.46843416796655
  C   4.47935837805702      2.07523595064751     11.08083354799605
  C   4.21019583642446      0.92267022831095     10.33763938510103
  C   2.88763700357888      0.62250854407239      9.98988311420170
  C   1.87710741960240      1.49031773063657     10.40885416858564
  N   0.35552205453293      2.38933355226457     15.66730430438930
  N   1.00888032953275      1.30806283280112     15.14872273606531
  C   1.08999812944579      1.62606793296844     13.86500682138908
  N   0.52328918030584      2.83970102108205     13.54400074945694
  C   0.06661484603672      3.29691331960280     14.72023487840697
  H   5.73288238287627      4.08118261204849     12.49368489940945
  H   5.84029747569369      6.26871018566567     13.66749636656308
  H   3.71072254901356      7.57506419072529     14.02020568127856
  H   1.55071223010820      6.58227907796589     13.18626582815912
  H   5.50325501810784      2.32488339630941     11.34242780841190
  H   5.02532055463462      0.27306430793985     10.02717671607066
  H   2.64039905252596     -0.25820885522213      9.40335188950703
  H   0.82928871247106      1.32351680017189     10.17267571112891
  H   0.14685423270543      2.41588480006524     16.66223782935548
  H   1.55882198805495      0.97728244001044     13.13935668196836
  H   -0.45107868100592      4.23427257972718     14.87645875426163
  C   -1.99114494602401      3.18093734746582     10.20197858273390
  H   -2.72998390031936      2.38198995448088     10.08717757953801
  H   -2.43458673236907      4.08852955668970     10.62401010147938
  H   -1.50257015991193      3.40299350254905      9.25329587726802
  H   -1.32602077511582      2.43284980904340     11.94694518984144
