37
Coordinates from ORCA-job CAXLIW-CH3OH_1_2_tpss_d4_lanl2dz_631gpol_Fe3.opt
  Fe  0.76164724515316      3.88215920885362     11.87348095206195
  Cl  0.95395747839206      4.96315385762013      9.93309057009368
  Cl  -0.80299209368790      5.33207938013608     12.70166695834951
  O   -0.86104335433126      2.81037788258561     11.29882683090452
  N   2.35325727244506      4.78982035266515     12.48412404754959
  C   3.53239966969239      4.15955728809427     12.20646253146520
  C   4.75754418241730      4.72760994983894     12.57239101757584
  C   4.76804536684670      5.96789139724647     13.21549715869132
  C   3.55253608312824      6.61330574032457     13.46900106505504
  C   2.35920145628481      5.99665690273700     13.08752351010257
  N   2.06207010939330      2.59755213585422     11.22110370199042
  C   3.36505060266332      2.90368118259886     11.47543221922205
  C   4.39677266485164      2.07100223389171     11.02365068150980
  C   4.07567603272099      0.92425705367928     10.29403146118814
  C   2.73034507078213      0.63110566961041     10.03061420725362
  C   1.74641595070844      1.49431522050742     10.51215401271157
  N   0.40486099589865      2.31533192826605     15.68309864662191
  N   0.88646149942952      1.17586894570616     15.10810591969046
  C   1.02608806840708      1.53772867677144     13.84285902164076
  N   0.64830275243962      2.83823735818131     13.59135211757727
  C   0.25778879692487      3.30466112287059     14.78867765075625
  H   5.68789560998199      4.21443433259454     12.34628854122948
  H   5.71103653835505      6.42779634349995     13.50110482445120
  H   3.51718190408314      7.58807005655510     13.94773859154487
  H   1.38548209659423      6.45350560690695     13.23637465005158
  H   5.43336244828336      2.32076852511337     11.23080138455691
  H   4.86464022054496      0.27049708388718      9.93003661372352
  H   2.44295053122109     -0.24737948948330      9.45950387416269
  H   0.68619122105489      1.32292488239546     10.35332513238937
  H   0.19486726126612      2.32298068150328     16.67797625482031
  H   1.38949123302798      0.86065433214648     13.08455430718183
  H   -0.12475487001949      4.29672945531985     14.98608992970861
  C   -1.59434377606578      3.16676267141040     10.06745827887089
  H   -2.49310288011644      2.54236520442530     10.04157380287901
  H   -1.83221932665184      4.23352481432501     10.07860750179281
  H   -0.92888344837373      2.93456218617268      9.23626551647659
  H   -1.45016061374572      3.08291982518829     12.04363651414818
