37
Coordinates from ORCA-job CAXLIW-CH3OH_1_4_tpss_d4_lanl2dz_631gpol_Fe3.opt
  Fe  0.71160680331207      3.90471416312275     11.82791260632633
  Cl  0.84610895428031      4.89125150173100      9.83702112088773
  Cl  -0.75861681067481      5.42976425365129     12.60696616051465
  O   -0.98289127868791      2.59215157753959     11.16974763373650
  N   2.49153893447203      4.86131137582516     12.57649445326141
  C   3.63318056157557      4.21189952134235     12.23314069404540
  C   4.89078794464007      4.75082696907234     12.53588571966417
  C   4.95757543678556      5.98513913981762     13.19070197856562
  C   3.77300367219444      6.65304147892733     13.51984722165001
  C   2.55239439174302      6.05443706840271     13.19235123718632
  N   2.12595745520714      2.63960020861495     11.22196383482326
  C   3.42379357020494      2.95264333082810     11.49365477751541
  C   4.45508281453382      2.11049500870730     11.05393484525546
  C   4.14625598373012      0.96441997928272     10.31796019565616
  C   2.80659132852024      0.67387886980645     10.03213396136434
  C   1.81917715093170      1.53829270233947     10.50438334914528
  N   0.22238369468290      2.31500007770177     15.64839568389917
  N   0.82730990361228      1.21288747317286     15.11326906983506
  C   1.00731430747673      1.57729661030570     13.85457998532608
  N   0.54202162642633      2.84275259935941     13.56808265987944
  C   0.04943360150643      3.28348028891366     14.73820370053307
  H   5.80309892379843      4.23153549190634     12.25679180748247
  H   5.92451075296570      6.42233273201157     13.42889611619252
  H   3.78670550278223      7.62078942326071     14.01410830087144
  H   1.59451359561771      6.52425578341078     13.40241208520480
  H   5.48941030131780      2.35161359040784     11.27996435341730
  H   4.94151034601891      0.31025384681094      9.96849464878349
  H   2.52413172046842     -0.20201381261707      9.45463013092700
  H   0.75945745699976      1.37311288992930     10.33129018315587
  H   -0.03962534991589      2.31227749245032     16.63133667403229
  H   1.46697146117581      0.92899834105204     13.12334192676119
  H   -0.41459653287002      4.24627477752334     14.90472213420080
  C   -1.85720840627666      3.08555029689512     10.09674113976663
  H   -2.73360916803178      2.43177299162974     10.03439717126903
  H   -2.14016938944722      4.12440534787331     10.29534511558914
  H   -1.26755409158705      3.02736404208339      9.18148228261076
  H   -1.51353716948926      2.59366256690759     11.99389504066349
