31
Coordinates from ORCA-job CAXLIW_1_4_tpss_d4_lanl2dz_631gpol_Fe3.opt
  Fe  1.33397370197975      3.65718120408285     13.20119419704239
  Cl  -0.06479926196803      4.59028719866027     11.74934683807574
  Cl  2.28387101791118      3.55362560038964     15.22399313912222
  N   2.66069679663895      5.00191259194870     12.71411281132185
  C   3.67112476728421      4.59467614864326     11.89707952004136
  C   4.65076135072174      5.51010149347244     11.49209096511014
  C   4.58074108064039      6.83314288327611     11.93704888443115
  C   3.53164623036326      7.22441804106368     12.77847956349814
  C   2.58183668998568      6.27400999349160     13.15021223978341
  N   2.58503911611691      2.47592878160097     12.03869218125096
  C   3.63077063760918      3.17345285049090     11.51332396914799
  C   4.57284274095352      2.54831776107548     10.68705318645804
  C   4.43251673848687      1.18526590629563     10.40689607622488
  C   3.35907324639912      0.47707824180580     10.95899605226869
  C   2.45484338671424      1.16317477871795     11.77276074408463
  N   -1.28833798264335      0.89176861851218     14.74475030791949
  N   -1.72838237544336      0.83244325745113     13.45309766110625
  C   -0.93713016113223      1.69544281706224     12.84076540229506
  N   -0.01842086624055      2.28783312858815     13.68523567970588
  C   -0.27497732303828      1.75540201075788     14.89196635302136
  H   5.45961707793929      5.19290932672228     10.84088520151785
  H   5.33914304712190      7.55010878449828     11.63104528328892
  H   3.44420277554993      8.24326042458851     13.14548601208904
  H   1.74304949305082      6.50666869918691     13.79905866048117
  H   5.40315422763203      3.10961382535568     10.26879690787669
  H   5.15517522927128      0.68377183866470      9.76740563029601
  H   3.22102655691438     -0.58344510896561     10.76763474115346
  H   1.60480483367519      0.66563381429049     12.23117375218439
  H   -1.74374630428922      0.32241383525946     15.45366377297795
  H   -1.01405095394370      1.93573262902907     11.78971558947643
  H   0.24853448573860      1.97916862398297     15.81093867674688
