33
Coordinates from ORCA-job CAXLIW-OH_1_3_tpss_d4_lanl2dz_631gpol_Fe3.opt
  Fe  0.55861807945548      3.66278650187516     11.79987074544097
  Cl  0.74717292358114      4.79191968496147      9.90599702619091
  Cl  -0.97830437759390      5.00124130993538     12.72026432897411
  O   -0.69868111797954      2.54972205568667     11.20730271164330
  N   2.15039392692613      4.70630261286786     12.43818900331419
  C   3.34104190755117      4.08154215523523     12.20699677405699
  C   4.54950162737453      4.68986098838688     12.56815018278308
  C   4.52603864729390      5.96052409401079     13.15106421965512
  C   3.29729988415954      6.60092702463868     13.34937141133565
  C   2.12360217605729      5.94138214184556     12.97648440000699
  N   1.95840418009156      2.43942993336917     11.17165771712887
  C   3.22989065548283      2.79346190012962     11.50644467254651
  C   4.30537487057040      1.97838871503595     11.13315422898794
  C   4.05659038806339      0.81241998411024     10.40198137408871
  C   2.74170402951948      0.48580208369062     10.04969360744957
  C   1.70588853099201      1.33016049085235     10.45504070407963
  N   0.72828086627931      2.07108767785629     15.59234266023606
  N   0.25184278226689      0.96249018660530     14.95189429707380
  C   0.19958929209731      1.35856418688173     13.69104339256848
  N   0.63013690557717      2.65096231324933     13.51423486156035
  C   0.95056045351575      3.08168697050423     14.74025480224610
  H   5.49509323526979      4.18904045100307     12.38187667596653
  H   5.45672637220731      6.44897805069025     13.43003988290305
  H   3.23889958627014      7.59830335923383     13.77656091793617
  H   1.13648067960243      6.38218271203302     13.09061805220820
  H   5.32207578147691      2.25316482063133     11.39857575739121
  H   4.88368098940591      0.17332776567599     10.10188231681680
  H   2.51410269794210     -0.40197209382858      9.46615242246607
  H   0.65872442891599      1.16023855241712     10.21844433832080
  H   0.84290804635387      2.05207320924633     16.60278280497199
  H   -0.16824358840540      0.74431000412477     12.88228295568814
  H   1.29304618395891      4.07110238981805     15.00576927310190
  H   -1.54799104428001      3.04823776722604     11.13800148086071
