31
Coordinates from ORCA-job CAXLIW_1_2_tpss_d4_lanl2dz_631gpol_Fe3.opt
  Fe  0.69896261805498      3.78138081303122     11.89331089342078
  Cl  0.74563288231281      4.44123294668514      9.79532473505146
  Cl  -1.01027595337225      5.06167971513131     12.42429788698270
  N   2.21132620504984      4.78752619481802     12.45389776477441
  C   3.43991593182578      4.26540786722506     12.14602313371929
  C   4.60842255939846      4.98501790752878     12.41585318394608
  C   4.51242430671722      6.25099708675221     12.99965217779901
  C   3.24799680173290      6.76950384977411     13.30364469223062
  C   2.10983834927399      6.01552037371849     13.01450187478077
  N   2.08739499555244      2.50065987227742     11.38366478175854
  C   3.36781941028554      2.94153893987031     11.53061900198126
  C   4.44983742319866      2.15940238936175     11.10689544702974
  C   4.19685119723921      0.91623175745191     10.52134758736890
  C   2.87260024779616      0.47976295064645     10.37390548354141
  C   1.83789430058129      1.30447317302695     10.81637093322209
  N   0.63381873094804      1.42629423786007     15.25450183857399
  N   -0.71820373501214      1.59109345227041     15.14434786377109
  C   -0.83068864611039      2.35593462918943     14.07263521870622
  N   0.38601131300473      2.67195004644832     13.49683733266188
  C   1.29258887328322      2.06408773083144     14.27780608322140
  H   5.57657525188844      4.56367156175857     12.15989753487611
  H   5.41133835026441      6.82638101431006     13.20720008612853
  H   3.12953866982247      7.75189229035413     13.75208536281954
  H   1.10269459621516      6.36872234988090     13.20726805808601
  H   5.46790417619005      2.52075341829912     11.22206134064812
  H   5.02255545024081      0.29827214087202     10.17686239500716
  H   2.63955688447678     -0.47666394902366      9.91416417815245
  H   0.79100582658555      1.03261943084050     10.70786564736219
  H   1.00623161290997      0.87849877578351     16.02624266194681
  H   -1.77503788791974      2.71467889965348     13.68799160853193
  H   2.36606925756553      2.08277813337247     14.15582321189905
