93
Coordinates from ORCA-job BAYDEL-CH3OH_0_5_tpss_d4_lanl2dz_631gpol_Fe2.opt
  Fe  5.84986802713514      1.70287751189457     17.67150148648155
  C   7.03639165695182      0.14553946114930     18.03973469885491
  S   8.48607664637362     -0.45845288045718     18.06825742715345
  N   7.09574346300495      2.73716908176357     18.96441298906388
  N   7.09049515285862      2.18853665476721     16.08464559804753
  N   4.45613372036057      0.97117036046479     16.35573133924795
  N   4.42020409180345      1.62616163500382     19.21795161730189
  C   6.92191411944689      2.91794981187606     20.31969520339514
  C   8.35360697444561      3.20781159281675     18.65176251318594
  C   8.35148887885567      2.72394614947197     16.18024297713595
  C   6.89752655818412      1.84493498417637     14.77098668301531
  C   4.61149845727679      0.82574890852050     14.99824754853272
  C   3.20413124344654      0.49232703262743     16.67010390673147
  C   3.19247825557330      1.00760367494872     19.13503044419402
  C   4.61781752846626      1.93892917254173     20.54226465962346
  C   8.10351942457628      3.54157969342930     20.88709150727403
  C   8.99807591025088      3.71980007462743     19.84606100252579
  C   8.98829519906491      2.73727402441005     14.86950189603374
  C   8.07861317450419      2.19224606965689     13.98817248126891
  C   3.42505540120007      0.20956291412582     14.42585335181917
  C   2.54604005501898     -0.00025147413092     15.47139616438354
  C   2.57461574995811      0.94544934929115     20.45283011347951
  C   3.46460648843832      1.52689870402861     21.33201268275031
  C   8.92536714089526      3.19132826679047     17.37062862687743
  H   9.93384995979569      3.59392395677463     17.29283439634105
  C   5.74279623648523      1.22811611191207     14.27305889155378
  H   5.71953286061700      1.04118677084781     13.20079221137366
  C   2.63434238053954      0.50477819916493     17.95228379629196
  H   1.63602631172442      0.07849478878488     18.03576243617570
  C   5.77574155751686      2.54961662400747     21.04089021141584
  H   5.79700642978788      2.74742890713042     22.11129726673010
  C   8.25771075160125      3.95732778127928     22.32325138994016
  H   9.32527681899467      4.05230122091938     22.56835683305082
  H   7.85614287521232      3.17489242843619     22.98508171551892
  C   7.54486144815064      5.29432057057142     22.62961391629041
  H   7.96171024826996      6.10430644152588     22.01652414008946
  H   7.66023024920783      5.56727559572304     23.68765940967534
  H   6.47229824191741      5.22229610868831     22.40526571463019
  C   10.35062127810311      4.37401043706272     19.88734369535812
  H   11.05696993848652      3.81514798554380     19.25462851289549
  H   10.75127454200197      4.33093074264371     20.91037561413196
  C   10.30841807891901      5.84726417107346     19.42111295115437
  H   9.92895214391430      5.91915075736387     18.39314131108099
  H   11.30991617073081      6.29817822959647     19.45305336228204
  H   9.64295817557367      6.43719126718199     20.06518551866854
  C   10.39122975244494      3.20063107733222     14.59472670312703
  H   10.59763808051074      4.12918516751500     15.14961873375826
  H   10.49737251844159      3.44837963972516     13.52860822416300
  C   11.44644788528548      2.13699876648643     14.97676240406803
  H   11.36863656105804      1.87604976747039     16.04045636065010
  H   12.46348342296326      2.50505292064756     14.78224488221441
  H   11.29407420491203      1.21742353410607     14.39661461864731
  C   8.25327152421684      1.91775169825638     12.52105981437363
  H   9.02454960664031      2.58486341712580     12.10934960892816
  H   7.32211613715095      2.15077011568282     11.98187044815842
  C   8.64946291173593      0.45016592946166     12.23937762610042
  H   9.60168027822652      0.20826813177779     12.72931925097211
  H   8.75929945697635      0.27319448380456     11.16042312876750
  H   7.88955242633078     -0.24023000884697     12.62882888724747
  C   3.25529272977239     -0.16379052308131     12.98006358179912
  H   3.64177285720086      0.64161747154901     12.33704206743355
  H   2.18540215225797     -0.26046242691055     12.74568902827627
  C   3.97483866186093     -1.48530388426449     12.62500626855914
  H   5.04961179576791     -1.41255873120255     12.83810887486292
  H   3.84741729661801     -1.72703835516765     11.56070190945229
  H   3.57251239032521     -2.31613636042521     13.21936887952394
  C   1.19310006540161     -0.65380674849495     15.43121789965981
  H   0.78428128824942     -0.59574084537364     14.41209482886538
  H   0.49093209638197     -0.10486068067227     16.07735064001934
  C   1.23936735357530     -2.13395488039349     15.87492036008284
  H   1.90185925539673     -2.71298773204876     15.21824975305640
  H   0.23778105208373     -2.58480327380903     15.84189688750907
  H   1.62548212582132     -2.22254809633331     16.89914636657004
  C   1.25287473438169      0.29788021493335     20.75830843544985
  H   0.51425780626962      0.56906239500095     19.98788746533425
  H   0.86302805340794      0.68666756028967     21.71033050431466
  C   1.35260837265890     -1.24243425581530     20.84397336269736
  H   1.71960143721097     -1.66332709949967     19.89855340153721
  H   0.37195665739815     -1.68688163809838     21.06381903112567
  H   2.05328253198592     -1.54013837283719     21.63489848327260
  C   3.34398555790702      1.66351540652081     22.82416979998830
  H   2.28308930363866      1.64142775091638     23.11293234510776
  H   3.73206725695549      2.64286364272440     23.14467179751399
  C   4.09972903568491      0.54726331522778     23.58096531524918
  H   3.69504272424942     -0.43888698325044     23.31828537443625
  H   4.01006983055481      0.68025190804800     24.66811653002454
  H   5.16546570407288      0.55120522603312     23.31698532538768
  O   4.75338160651774      3.74651055529879     17.34054061514516
  C   5.48345670849144      4.97513708989077     17.51648693626744
  H   4.81960712048407      5.83857603314064     17.36258434100326
  H   5.95154532601146      5.02932409993047     18.50764369921625
  H   6.26554530945485      4.97133731792614     16.75244218690312
  H   4.20769901941574      3.57561638967678     18.13943680015046
