87
Coordinates from ORCA-job BAYDEL_0_1_tpss_d4_lanl2dz_631gpol_Fe2.opt
  Fe  5.78215417523890      1.88004454560674     17.66601868238883
  C   6.44709474180772      0.38859863604806     17.92650926782279
  S   7.07676045711361     -1.04101460788470     18.17197192811789
  N   6.99494952741828      2.86824752249547     18.89206515204361
  N   6.97068815065723      2.34387704024766     16.13929728440220
  N   4.40656438484196      1.24576777005979     16.37488723888815
  N   4.44350536443418      1.74570934585684     19.13268102414504
  C   6.86556978401669      3.02362894678357     20.26230545891386
  C   8.24413981525074      3.39217549242891     18.60346055190302
  C   8.23476665675108      2.90570842756163     16.19729531050424
  C   6.81409130055487      1.98641543429860     14.81073096588872
  C   4.56376531743664      1.02874641035022     15.01626475535794
  C   3.14896923911115      0.74152955497558     16.65991650702253
  C   3.18338933269440      1.17499632596472     19.07579463625056
  C   4.63890184461283      2.01439484558324     20.47690497903880
  C   8.02299834375013      3.68170472291730     20.83338385370284
  C   8.88773445862842      3.91477595631017     19.79144340516585
  C   8.86928862781147      2.92106510190987     14.89500726776681
  C   7.97707451987074      2.34350895278762     14.02428376561369
  C   3.39245304136293      0.40091847483537     14.43965053063279
  C   2.50178838112988      0.22508723052501     15.47092750350716
  C   2.57260937062084      1.10539800645335     20.38757147607274
  C   3.48910115641568      1.62673944192278     21.26853357369584
  C   8.82450909512374      3.40610013861223     17.34608204431619
  H   9.81857364979111      3.83662175643066     17.25546647246214
  C   5.68741679313600      1.37656895539998     14.28511304336384
  H   5.68121690467908      1.16170349616410     13.21953693768931
  C   2.57244818450533      0.72069653049859     17.91898571514207
  H   1.57103467532309      0.30706780613266     18.00744625292141
  C   5.77226557823361      2.60973959487119     21.00505908321415
  H   5.80040402801146      2.77623854355235     22.07897916137676
  C   8.16835840896396      4.07421897069402     22.27708017902989
  H   9.23387722956146      4.21134446233680     22.51072912751293
  H   7.81280336552676      3.26066044106930     22.92821531903113
  C   7.40291547326146      5.37321014394704     22.61876236187492
  H   7.77883431880818      6.21211590692793     22.01812056761464
  H   7.51900046403859      5.62863054170421     23.68129389020125
  H   6.33161500482579      5.26342128503185     22.40423621118875
  C   10.21349119471731      4.62204190197694     19.81365178965640
  H   10.93461009065158      4.09381453043194     19.17049856223671
  H   10.62792328573836      4.58850286410205     20.83160914028254
  C   10.10748529922138      6.09486512247199     19.35646594482711
  H   9.70841867765643      6.15867451976925     18.33564909869812
  H   11.09118762909949      6.58319199518945     19.37491124531977
  H   9.43063166017943      6.65564262636817     20.01460469397448
  C   10.25721961374151      3.42506845551028     14.61595406021934
  H   10.43554967521959      4.36597265409082     15.15906079399673
  H   10.34966253085453      3.66527712569727     13.54705201766387
  C   11.34848165947374      2.39999348852525     15.00084306047973
  H   11.28812661288212      2.14593201616888     16.06736287193022
  H   12.35066615046935      2.80081857905426     14.79531984759264
  H   11.22379783797362      1.47031537891468     14.43026087678606
  C   8.14938053867921      2.05967720266069     12.55852732003024
  H   8.90128604609195      2.74428625033835     12.14002722571614
  H   7.21164633626097      2.26635307903430     12.02026057966751
  C   8.58327281140648      0.60136406712991     12.28610874920648
  H   9.54360258052102      0.38774433445919     12.77328376419210
  H   8.69362604775486      0.42021950489024     11.20801771731084
  H   7.84443970758982     -0.10747362192152     12.68302855706779
  C   3.25519874027107     -0.01450312516818     13.00163423310851
  H   3.64809235988900      0.77261125144979     12.34009448569194
  H   2.18974292794473     -0.12180390487644     12.75338960134586
  C   3.98192126853193     -1.34482726834710     12.69874887912168
  H   5.05361227218608     -1.26661507408257     12.92452546679709
  H   3.87011659557319     -1.62070308298561     11.64109653228581
  H   3.57106713803080     -2.15643905621549     13.31339821808509
  C   1.14716449024775     -0.42522882547147     15.43800390718880
  H   0.74265500249379     -0.37416601326141     14.41675507441516
  H   0.44411797223050      0.13249397329815     16.07550243285146
  C   1.18681149282023     -1.90221597296370     15.89250126965715
  H   1.84706996480000     -2.48879185637508     15.24055929749648
  H   0.18332286114561     -2.34849381383227     15.86130601943279
  H   1.57150845176374     -1.98735407972868     16.91747095418385
  C   1.22249094656027      0.51356202023505     20.68039442944468
  H   0.49797239983528      0.82644193599588     19.91293132603113
  H   0.84929640818716      0.91079708406863     21.63529191075204
  C   1.25350708841417     -1.03023737069036     20.75341902711833
  H   1.60734385537697     -1.46106160087486     19.80743869753657
  H   0.25255580870031     -1.43190850875530     20.96371592577502
  H   1.93470692180114     -1.36569946662264     21.54613675498915
  C   3.38871016347779      1.74477667274300     22.76368232818945
  H   2.32956146988252      1.74667424167417     23.05915160559600
  H   3.80331312952098      2.70913835618636     23.09569576635655
  C   4.11856119128515      0.59614447710087     23.49705952244575
  H   3.68658296818752     -0.37439530961045     23.21968145303172
  H   4.03681622296849      0.71253157158473     24.58667193301591
  H   5.18314273637044      0.57532851925169     23.22893354541364
