88
Coordinates from ORCA-job BAYDEL-oxo_0_3_tpss_d4_lanl2dz_631gpol_Fe2.opt
  Fe  5.65053066788686      2.12512694313176     17.62712033109443
  C   6.65305316761528      0.45922197238799     17.80457144207570
  S   7.66744215811103     -0.72006198229259     17.79396609593712
  N   7.01730105128384      2.85676943060082     18.92535571411379
  N   6.98100176236790      2.35003628958024     16.11525427820558
  N   4.38160807480481      1.20481015353994     16.36332924639211
  N   4.42603466345342      1.70329492360318     19.16091753263266
  C   6.86435185842776      3.01965002894512     20.28251313811602
  C   8.25113521658747      3.38286205734632     18.61806461147099
  C   8.23830679488107      2.90633936524633     16.19427774690880
  C   6.80530331122217      1.99495135344633     14.79661877916349
  C   4.54558719917492      1.02303700598194     15.00956071543715
  C   3.13073442875502      0.71620623767225     16.65872160701896
  C   3.16895904526152      1.15114014694839     19.08640233765859
  C   4.62510558937203      2.00288929304172     20.48857342573713
  C   8.02488910549852      3.67834652084949     20.85214722411637
  C   8.89343512967982      3.90638692957546     19.80930784233554
  C   8.87545963098056      2.90874405097692     14.89198385568340
  C   7.97763560065397      2.33929344776758     14.01660371977207
  C   3.37234928099593      0.39307248858760     14.43134507867814
  C   2.48385411119780      0.20465145309471     15.46422704059948
  C   2.55465026677389      1.09151048028405     20.40052371924295
  C   3.46914333959547      1.62107365647023     21.28033050001174
  C   8.82663406634346      3.39709072425457     17.35318270393853
  H   9.82087848913219      3.82722128021897     17.26354134636618
  C   5.66980325069090      1.38670417348160     14.27776329073102
  H   5.65742489017921      1.18285016757180     13.20991215087136
  C   2.55757878890002      0.69920315768183     17.92366665987877
  H   1.55177525666587      0.29649825974064     18.01160527104088
  C   5.75860924758975      2.60953576310530     21.01610529468612
  H   5.77463162580255      2.79105838065620     22.08786895907223
  C   8.16811058095812      4.07713655395184     22.29404918365077
  H   9.23340182630165      4.20612550163886     22.53364615642193
  H   7.80038698010656      3.27092423740865     22.94718183077251
  C   7.41110490921810      5.38392588210069     22.62295847545879
  H   7.79730980421771      6.21537822252416     22.01914315633492
  H   7.52301712212900      5.64494613003147     23.68439394505403
  H   6.34080871105717      5.28083939712934     22.40106546323425
  C   10.22035650320479      4.61185971808804     19.83363872316949
  H   10.94242524856726      4.08114274212223     19.19412344521944
  H   10.63159721929191      4.58123201953157     20.85283067426354
  C   10.11690942114301      6.08341012435159     19.37215448833728
  H   9.72275755769495      6.14461080998386     18.34929500708814
  H   11.10140600907669      6.57108147373606     19.39543056162265
  H   9.43617110932496      6.64521265867257     20.02488443672129
  C   10.27237519805975      3.38935242464749     14.61620786564439
  H   10.46383678956775      4.32725131624177     15.15965049909128
  H   10.37279025499136      3.62694448723323     13.54744376400392
  C   11.34439952265261      2.34628021712020     15.00738964083196
  H   11.27625388587272      2.09891819702603     16.07513713651208
  H   12.35456057175002      2.72740543768199     14.80319698172530
  H   11.20463692292597      1.41677307754704     14.43980093228262
  C   8.15624646775213      2.04695127038680     12.55337259175562
  H   8.92008804759200      2.71895978482341     12.13664584270259
  H   7.22477506400937      2.26370787878985     12.00883292069513
  C   8.57156034841165      0.58148658504476     12.29045054907110
  H   9.52519769663650      0.35631857144382     12.78583364260822
  H   8.68760856938900      0.39349465382939     11.21413847428806
  H   7.81876545519881     -0.11418548335390     12.68444453356694
  C   3.23310221944892     -0.01354798058837     12.99088986678490
  H   3.62529963306702      0.77848091051803     12.33509760907841
  H   2.16727428798677     -0.11869677917983     12.74249394343088
  C   3.96044838616255     -1.34109413116646     12.67729467679434
  H   5.03173309791578     -1.26305638688797     12.90643853439763
  H   3.85175874535501     -1.60684828480141     11.61657388016030
  H   3.54922854633405     -2.15968992945966     13.28256716992733
  C   1.13421639897272     -0.45585662023245     15.42946922108333
  H   0.72961008575614     -0.40640768099479     14.40834514670028
  H   0.42750021274375      0.09599066904699     16.06766478025207
  C   1.18418094516644     -1.93260320082083     15.88311549364572
  H   1.85071354955511     -2.51387681802983     15.23246494929032
  H   0.18443261978381     -2.38720344133346     15.84909312100266
  H   1.56653023977690     -2.01398498023567     16.90938158815537
  C   1.20575022884670      0.49817685353993     20.69550266111033
  H   0.48095652492656      0.80755044694597     19.92710869919763
  H   0.83209244263900      0.89790600316510     21.64909830191426
  C   1.23871419128803     -1.04519806192842     20.77289884552346
  H   1.59133960155626     -1.47717859106327     19.82686214236022
  H   0.23890611200392     -1.44819047106374     20.98571936361119
  H   1.92160647163765     -1.37768408069896     21.56571677167946
  C   3.36301258300947      1.75113370828207     22.77411346283965
  H   2.30271761568792      1.75221741304793     23.06479163872426
  H   3.77253732000457      2.71981168256329     23.09894766431361
  C   4.09296097883420      0.61251749183434     23.52205676985625
  H   3.66665900108028     -0.36266779481180     23.25184024227436
  H   4.00509049845559      0.73914397417535     24.61009858364343
  H   5.15926139062231      0.59451654467324     23.26027146882351
  O   4.98470120439528      3.61234149227496     17.37308082230712
