89
Coordinates from ORCA-job BAYDEL-OH_0_6_tpss_d4_lanl2dz_631gpol_Fe2.opt
  Fe  5.49798048595307      2.48537204459313     17.53885165560143
  C   6.25727025985825      0.23470609631772     18.18362804196276
  S   6.04201215587888     -0.95187979709371     19.17749464477087
  N   7.00081184999487      2.98215830651763     18.91566186530844
  N   6.95443209359443      2.48394100448565     16.04081462850025
  N   4.30291664119040      1.30542340579273     16.28496969363463
  N   4.31005970712758      1.90516698181910     19.13683737044844
  C   6.84489540605101      3.12765928545468     20.27153693545487
  C   8.25165403080266      3.45910258247731     18.60600334416033
  C   8.22836276586455      2.99144509368862     16.14178925635650
  C   6.78636672227873      2.08919533497957     14.73458462876742
  C   4.49669728418731      1.08943762091046     14.94180722148003
  C   3.07588211289364      0.77589322219730     16.59978408131981
  C   3.09814028251400      1.25334774744280     19.05943369406006
  C   4.55332945070935      2.13812969679345     20.47313780798487
  C   8.03664320563351      3.72779408125081     20.85193420015259
  C   8.91592490969918      3.93683378055086     19.80975140368359
  C   8.88917422516933      2.94226566529975     14.84762471596282
  C   7.98667728127101      2.37873905057615     13.96712523821123
  C   3.34738700358519      0.39829183645084     14.37689987023606
  C   2.45918428260731      0.20148549589600     15.41414349023217
  C   2.53797023693195      1.09175049177040     20.38741733588607
  C   3.44756071368743      1.64285145712594     21.27082823508663
  C   8.81269073375247      3.46257319724181     17.32432016401826
  H   9.82445932150905      3.85484013978883     17.24056379574230
  C   5.63784326520847      1.46884130814587     14.22671111041132
  H   5.64325608771798      1.23524438203876     13.16378961519265
  C   2.51843938360852      0.76656588206099     17.88316989087904
  H   1.54014612330407      0.30103718321370     17.98352686391284
  C   5.71215780986413      2.72737358616444     20.98893091693802
  H   5.74333288910313      2.87122157373145     22.06713322217384
  C   8.20357527534163      4.08958791752090     22.30092453322411
  H   9.27352672070184      4.17660640022479     22.53877620943558
  H   7.81006279472629      3.28167894920387     22.93707824490529
  C   7.49120942732673      5.41270562670381     22.66358548471973
  H   7.90409650212442      6.24585480377054     22.07997138694193
  H   7.61295320116063      5.64325749951950     23.73104101357412
  H   6.41794049804882      5.34977046250001     22.44117871750554
  C   10.27365868093090      4.57972286681913     19.85115757708981
  H   10.96944792791555      4.03112059902271     19.19765147861428
  H   10.68460393268808      4.50852122717603     20.86855893770625
  C   10.23693705423103      6.06416658079019     19.42160896395387
  H   9.84627645086965      6.16494252163671     18.40038117425130
  H   11.24232833528924      6.50642055538609     19.45398590913148
  H   9.58230341196202      6.64190586122640     20.08705575186383
  C   10.30818186102452      3.36126250671107     14.58304430902847
  H   10.52842928573875      4.30048018555964     15.11341226453183
  H   10.43449084145507      3.57507092045135     13.51186823536453
  C   11.33323682925082      2.28545925636748     15.01012759583590
  H   11.23896613712628      2.06083505110290     16.08068500750096
  H   12.36008984065520      2.62445121961688     14.81522474635285
  H   11.16648587267713      1.35148235800876     14.45777696014078
  C   8.19020565296660      2.03844770310393     12.51719951852690
  H   8.97772155663520      2.67971681406030     12.09554737571452
  H   7.27450072608862      2.25875618684648     11.94748769378778
  C   8.57519339612571      0.55628764077422     12.30541348477990
  H   9.51620971531233      0.32397090379752     12.82087882357204
  H   8.70149926647381      0.33338444090978     11.23694210133049
  H   7.80084037387598     -0.10892362325949     12.70980529440078
  C   3.22668553308224     -0.05728597939598     12.94960594906360
  H   3.60232795403693      0.72494848334725     12.27239723610452
  H   2.16593043030252     -0.20014592083951     12.69803441776939
  C   3.99324435896140     -1.37249984453743     12.68057969107917
  H   5.06113463398539     -1.25592367953785     12.90837381081318
  H   3.89426734905811     -1.67531874095413     11.62901002278222
  H   3.60462334915926     -2.18230554099409     13.31185673197798
  C   1.14009306912409     -0.51851820402561     15.38751103891727
  H   0.73804723920863     -0.51299389086492     14.36411589763863
  H   0.40732988007801      0.01697383604659     16.01017399629500
  C   1.25360965835218     -1.97996972128387     15.87913129355387
  H   1.94344865213625     -2.54929126445986     15.24247367375306
  H   0.27406330767933     -2.47737908978883     15.85985872607051
  H   1.64085787388042     -2.01733702987119     16.90605043339574
  C   1.24934458561618      0.38559662325643     20.70306033030257
  H   0.47870568461266      0.66355540346136     19.96819492559665
  H   0.87719275078724      0.71918937626712     21.68234104591619
  C   1.40714309771777     -1.15242549536928     20.71773288013812
  H   1.75805238660427     -1.51785031613479     19.74356234502857
  H   0.45063029047012     -1.64166875271531     20.94760737748657
  H   2.14273987846720     -1.45805401973076     21.47321775213856
  C   3.37722588691267      1.67779576704455     22.77165463304148
  H   2.32855100325885      1.59811211242657     23.09202048262092
  H   3.74101594080225      2.64800103640224     23.14293264971939
  C   4.19672922158725      0.54254631005139     23.42740286422566
  H   3.82110857967906     -0.43870215472338     23.10875823694878
  H   4.13475040862960      0.59765108897131     24.52299154714778
  H   5.25323339659195      0.60665824888770     23.13550753203251
  O   4.79866840925339      4.15998383554984     17.20354313400913
  H   5.17697489968968      4.57713635027970     16.40222561211572
