47
Coordinates from ORCA-job AQOGAP-oxo_1_2_tpss_d4_lanl2dz_631gpol_Fe3.opt
  Fe  1.76180441911863      6.42815364048845      1.71474692921910
  N   1.78032671747485      7.03284910418413     -0.04448503709870
  N   3.66809597602617      6.11388923518583      1.33426858617545
  N   -0.08910234041427      7.10072563820272      1.62989204376708
  Cl  1.80243559147779      5.90553162376837      3.96718411799151
  Cl  2.38507420527062      8.64281617176629      2.24446483955994
  O   1.32611470790101      4.90905905501697      1.29728714206906
  C   0.63733413149084      7.54028254866669     -0.54526636982133
  C   0.62450688888326      7.99829664782619     -1.87062243497705
  H   -0.27872278739325      8.41460936545783     -2.30783088433973
  C   1.80821279891852      7.90901845156486     -2.61899292663761
  H   1.81882154484046      8.25789402518238     -3.64861915678792
  C   2.98070581970006      7.38398444492920     -2.05450758532048
  H   3.89837098688784      7.32538148110121     -2.63300467175019
  C   2.93922129970670      6.93949819344994     -0.72497514579920
  C   4.03000755689973      6.39105005876690      0.10678994834525
  C   5.42179714990065      6.25563280417473     -0.43483853119681
  H   6.13095768444953      6.00334424807082      0.35770173796052
  H   5.73026277857557      7.19909026057723     -0.90532800620302
  H   5.45934909868403      5.47085046448151     -1.20409655585275
  C   4.48778407672599      5.52476343084814      2.32271217841410
  C   5.02985113376676      4.24489228675276      2.13377060925598
  H   4.85139081556958      3.70921306249351      1.20421295945871
  C   5.75372247385043      3.65918075050570      3.17706151811059
  H   6.17146431550759      2.66338573533332      3.04553797041958
  C   5.93625120771770      4.34310200962159      4.39653856334377
  H   6.50365786194282      3.87301899721352      5.19662579032072
  C   5.38755517986298      5.61441284471897      4.57959720151111
  H   5.52652718584282      6.14662359523268      5.51743660490749
  C   4.64467182668073      6.21679797039255      3.55311589789968
  H   4.24167881661235      7.22260213912662      3.64612754844641
  C   -0.44751867094664      7.56036339203853      0.45737728333777
  C   -1.79380076874052      8.13279665851734      0.12845316539834
  H   -2.31663817672309      7.49139355958142     -0.59569406373399
  H   -1.67470626879766      9.12419712092350     -0.32937170684104
  H   -2.41306741704434      8.22567506909724      1.02438049653073
  C   -0.93661911157156      6.94855942873039      2.74974339097566
  C   -2.05442093246724      6.10267942455693      2.69361066330046
  H   -2.29670985809993      5.58072118325308      1.77075000754302
  C   -2.81109027248956      5.90845923522604      3.85333373122934
  H   -3.67495680224129      5.24791526700964      3.82406214509110
  C   -2.45751620673513      6.55215540911478      5.05705934251909
  H   -3.05928473144210      6.39145217929072      5.94876471424669
  C   -1.33826114506485      7.38634748278341      5.10697883165382
  H   -1.06197398536782      7.88568705349084      6.03236606480866
  C   -0.55456519929330      7.58482279585904      3.96058026508328
  H   0.29710042454647      8.26112445542510      3.95370078746573
