48
Coordinates from ORCA-job AQOGAP-OH_1_1_tpss_d4_lanl2dz_631gpol_Fe3.opt
  Fe  1.78101791358694      6.43230511723661      1.84445480150650
  N   1.79949191220337      7.03151801621511      0.05905043411371
  N   3.69814313795203      6.09259219822919      1.42091384435330
  N   -0.09965863010803      7.12562423951443      1.71584021585928
  Cl  1.76769314502772      5.61012579876066      3.90662468408262
  Cl  2.38942276456618      8.53172985619076      2.49039798878647
  O   1.21747153719399      4.86526900755347      1.19759610310031
  C   0.65961982146734      7.53092642787823     -0.45650895394016
  C   0.63372553917912      7.93520427169277     -1.79924604778181
  H   -0.27317108032621      8.33961811676022     -2.23944550894883
  C   1.80304309687129      7.79980744912830     -2.56132463578272
  H   1.80303114505999      8.10299337281900     -3.60540624318718
  C   2.97285874644332      7.28054411327090     -1.98918317505721
  H   3.88168277424176      7.17732694717543     -2.57491627203207
  C   2.94187164754533      6.89477453802482     -0.64093798843443
  C   4.03801458753120      6.36024266359631      0.18296115769653
  C   5.42228191607539      6.22785838454151     -0.38184820211884
  H   6.15900782346920      6.09420490822256      0.41426421460088
  H   5.67303139819867      7.12556608744877     -0.96196061374235
  H   5.48289739134301      5.36375841280827     -1.05923903349257
  C   4.60847877086793      5.52117941245070      2.35623413970164
  C   5.17155264644652      4.26033950184230      2.08788250069680
  H   4.90263207424377      3.72855664181713      1.17708361227342
  C   6.03961815161172      3.69119194768010      3.02407107131083
  H   6.46831294935612      2.71004222886730      2.83153917146183
  C   6.34627667764980      4.37880579905337      4.20701801497121
  H   7.02328984639549      3.93291361734447      4.93255824136108
  C   5.77372337504030      5.63428091312942      4.46298375179053
  H   6.00981165696791      6.16499935530944      5.38250902101312
  C   4.88690925430732      6.20853909004009      3.55031811378243
  H   4.42045925704593      7.17155435232220      3.73569206335700
  C   -0.42953447059154      7.58156866009314      0.53361854829021
  C   -1.76422929883070      8.16563921311727      0.17235766815571
  H   -2.32390712609418      7.47921090767969     -0.47933474735350
  H   -1.61983775202432      9.10530267709921     -0.37689988178778
  H   -2.36198515382381      8.35858579311310      1.06684244131931
  C   -1.02412901548669      6.98844461890234      2.78532480975855
  C   -2.16754858309250      6.18455562553582      2.61719582682649
  H   -2.33664973326037      5.67503519650216      1.67048846165679
  C   -3.04774331096735      6.01869472963555      3.69104936769905
  H   -3.92656237217121      5.38854768971849      3.57330907545242
  C   -2.78862255964185      6.65240365252986      4.91348902513296
  H   -3.47282453109836      6.51969187562154      5.74874608959373
  C   -1.63937061447706      7.44693973826757      5.06963944826679
  H   -1.43927223881045      7.93473004459170      6.02088528081200
  C   -0.73985895501521      7.60722249359863      4.01478562188374
  H   0.16180508525581      8.20531279934632      4.11792021553006
  H   1.11475938267532      4.26413149772345      1.97538627746207
