48
Coordinates from ORCA-job AQOGAP-OH_1_5_tpss_d4_lanl2dz_631gpol_Fe3.opt
  Fe  1.80426080109073      6.43001081013143      2.11186502198559
  N   1.80603751328831      7.04020118507482      0.11883169187891
  N   3.84413685763580      6.12830661890649      1.41395936438305
  N   -0.19950182262622      7.19482305706202      1.73691494072657
  Cl  1.79944545391407      5.68744287992124      4.23119422583916
  Cl  2.40007973534130      8.53240791794700      2.63754232021393
  O   1.32343111661080      4.83513675607397      1.49340551475295
  C   0.67402380741300      7.53172926054591     -0.41157869178683
  C   0.63679334399852      7.93891965725382     -1.75486819004724
  H   -0.27825643608214      8.32934358803283     -2.19067147603893
  C   1.80247245370342      7.82483543952513     -2.52123907178780
  H   1.79994852606358      8.13119618666334     -3.56457407774862
  C   2.97146812720410      7.31641478631049     -1.94337111923341
  H   3.88277614819663      7.21965143904221     -2.52634337228157
  C   2.93901040380906      6.92864704077625     -0.59403456106310
  C   4.08893949283916      6.38240160292249      0.16594222357617
  C   5.42372035066501      6.21500074067347     -0.50664367331912
  H   6.19662461179580      5.95880180966397      0.22243214640871
  H   5.70552968010502      7.14673962485515     -1.01542563284984
  H   5.37848323189352      5.42074082449439     -1.26545464111773
  C   4.74986053612805      5.51964306333513      2.31196588472135
  C   5.26548005366413      4.23575131389373      2.03804923073360
  H   4.97828184310084      3.72297413536539      1.12206789405213
  C   6.11064778456411      3.62915704433902      2.96965302589243
  H   6.50720796148188      2.63607122185919      2.76964758766554
  C   6.43986528862072      4.29570421036005      4.15986896631458
  H   7.09593979643720      3.81772405453614      4.88413965702715
  C   5.91363673818597      5.57111282407751      4.42610753567800
  H   6.16494342092816      6.08217038655005      5.35271452141990
  C   5.05264482048376      6.18313152394964      3.51615962025945
  H   4.61498526088330      7.15775416132961      3.71473904038366
  C   -0.46875841741864      7.58968440791593      0.53110826079848
  C   -1.79653747279471      8.12637168928572      0.07075385934860
  H   -2.26129566466911      7.44302815478206     -0.65432500096701
  H   -1.65470698823694      9.09486667633243     -0.42743434411704
  H   -2.47708003604196      8.25552013680602      0.91610524836003
  C   -1.14506670041737      7.05210013705862      2.77615882557634
  C   -2.25671462316883      6.19976700136930      2.60819508384619
  H   -2.39307925866833      5.66988188773160      1.66740338449989
  C   -3.14518215938007      6.02234358000136      3.67042416964593
  H   -4.00116574559125      5.36150141927035      3.55172522942178
  C   -2.92897857235384      6.68824609190100      4.88677797731849
  H   -3.62181283206640      6.54461182779625      5.71310632861790
  C   -1.81341596364370      7.52768950144291      5.04633992208626
  H   -1.64471607370164      8.03634414187136      5.99278706527089
  C   -0.90547378394035      7.70123258969992      4.00238248570506
  H   -0.02323692959343      8.32608947439819      4.11313078056815
  H   1.24133432034892      4.21718611686476      2.25714481738132
