52
Coordinates from ORCA-job AQOGAP-CH3OH_1_6_tpss_d4_lanl2dz_631gpol_Fe3.opt
  Fe  1.88501780173707      6.72143600704960      2.28487524785317
  N   1.84286068705985      7.10195959996760      0.21978081394606
  N   3.86773822446624      6.20224799484090      1.54541376442750
  N   -0.15940368861634      7.31946901840963      1.83749093561352
  Cl  1.73799757402705      5.62624270239507      4.26654169001128
  Cl  2.51121107035590      8.85854072037452      2.77625565295923
  O   0.95392303239189      4.76089533054398      1.50577145470598
  C   0.70443731709780      7.55823465670457     -0.33266082180787
  C   0.66367087682289      7.90264507906566     -1.69460924803667
  H   -0.25413550538018      8.26146306039680     -2.15121936740842
  C   1.83270439897117      7.77311995392236     -2.45330484717914
  H   1.82702384540458      8.03411017187002     -3.50896279737578
  C   3.01045891632299      7.31076651870103     -1.85304920841396
  H   3.92378135914045      7.20795742233642     -2.43201556022282
  C   2.97994143612282      6.97907830186898     -0.48855994316450
  C   4.13313638729323      6.47945043071153      0.29795937894261
  C   5.48927751975391      6.39435493480832     -0.34720674258464
  H   6.27031759695416      6.24962089580316      0.40381133074897
  H   5.69193225199515      7.31911205388619     -0.90354265292462
  H   5.53635985334680      5.56048795785750     -1.06252745582050
  C   4.81692770345976      5.65019958690157      2.44553664501799
  C   5.51514641201443      4.46856493074799      2.12493562404064
  H   5.34241561122679      3.97593812927906      1.16940399829472
  C   6.39514475934366      3.91671359603367      3.05969092340601
  H   6.92602832967587      2.99769087120499      2.82022576396173
  C   6.58790817885535      4.54249706091874      4.29997203523461
  H   7.27510592230737      4.11048907990358      5.02426540648090
  C   5.88620029541849      5.71668898731658      4.61248077991573
  H   6.03037678351247      6.19992455920554      5.57613671352491
  C   4.98514533504444      6.26682915374851      3.69919962353438
  H   4.42565145238277      7.16917420627413      3.93296526768250
  C   -0.43489011464843      7.65586542878562      0.60914785063752
  C   -1.76047272603507      8.17604976039556      0.12369400551167
  H   -2.26474852821940      7.43614111975183     -0.51451169334537
  H   -1.60647096851915      9.08216605027226     -0.47699893514711
  H   -2.41778428126203      8.41369089836529      0.96433238938479
  C   -1.11638571463892      7.24887574016993      2.87917547425313
  C   -2.29539696412279      6.49067429810181      2.72757145574134
  H   -2.48874810305453      5.96966039734730      1.79152237495806
  C   -3.17951025556013      6.37960754469177      3.80363547136113
  H   -4.08497961942992      5.78608946130676      3.69618152915967
  C   -2.89717382500207      7.02507153195350      5.01677360839228
  H   -3.58939193777847      6.93634089265394      5.85131702710065
  C   -1.71676072042494      7.77067448904999      5.16140905202352
  H   -1.49377380842576      8.26268842745549      6.10539220713298
  C   -0.81110443308709      7.87113528155458      4.10476184288672
  H   0.11813987867429      8.42664863039939      4.20510037198789
  C   1.86571241288124      3.69232782652658      1.13343284038159
  H   2.32490459660957      4.00135578848236      0.19132925430009
  H   2.63259286134497      3.54749359669255      1.90426367847861
  H   1.29853296180144      2.76752438856372      0.97741802891695
  H   0.55841755038827      4.50903547443116      2.37220776052025
