48
Coordinates from ORCA-job AQOGAP-OH_1_3_tpss_d4_lanl2dz_631gpol_Fe3.opt
  Fe  1.79244688061511      6.45267436285413      1.85157133643746
  N   1.80826566907235      7.06202240363496      0.06222173897706
  N   3.72866941376337      6.10072881828727      1.43073242989913
  N   -0.10763119435173      7.11262496373981      1.73645693984201
  Cl  1.74975515366128      5.63088224425955      3.92693861255470
  Cl  2.39427280859366      8.55241508461778      2.45652807726092
  O   1.31309973298905      4.88264112219400      1.15872266292573
  C   0.65422827670424      7.52741108937194     -0.44653496829798
  C   0.61867452646595      7.91263811147197     -1.79539433579714
  H   -0.29473496205259      8.29278386133285     -2.24354870867213
  C   1.79182364394525      7.78669930985414     -2.55455166240190
  H   1.78491116134574      8.07652031512142     -3.60252947896271
  C   2.97277115287096      7.28919449794483     -1.98316189145593
  H   3.87748656642818      7.18794058416364     -2.57554767979900
  C   2.95194041344504      6.91871140428402     -0.62994311087724
  C   4.05365480225117      6.37957974589134      0.19157490252658
  C   5.42988694628687      6.24322744386518     -0.39314154809540
  H   6.17338164823260      6.07410765805584      0.38976520494263
  H   5.68839661169786      7.15448332128588     -0.94871366176179
  H   5.46852780060144      5.39937605284020     -1.09727136117259
  C   4.63161616108601      5.51242500033231      2.35473012723327
  C   5.20390575956746      4.25797591882229      2.07117261515096
  H   4.94783599900385      3.74148762611178      1.14806711956491
  C   6.06486974114013      3.67804014975205      3.00624591012115
  H   6.50277783093360      2.70362298125906      2.80151267996704
  C   6.35674810161053      4.34793830859445      4.20335283071353
  H   7.02885173134036      3.89315711369435      4.92792706112336
  C   5.77441582658133      5.59577819912469      4.47617395122210
  H   5.99718533497712      6.11022037008570      5.40810244753278
  C   4.89212895222269      6.17813629091056      3.56593737733984
  H   4.41511244204514      7.13338329500905      3.76503385812895
  C   -0.43475049214514      7.56391220400147      0.54953802180740
  C   -1.77221322395564      8.13893611946190      0.18179726298851
  H   -2.33233531825832      7.44011210372140     -0.45642978617051
  H   -1.63230956778779      9.06965149690284     -0.38357353416831
  H   -2.36818160352371      8.34350475218780      1.07486916730575
  C   -1.03888613436338      6.98756750475752      2.79930892511960
  C   -2.18487725385231      6.18677578310887      2.63003951315553
  H   -2.34630502542788      5.66464444641066      1.68882244303483
  C   -3.07583399053839      6.04216611177020      3.69586158000845
  H   -3.95705013266329      5.41519395743429      3.57908285437701
  C   -2.82943123847175      6.69842433651981      4.91085466889793
  H   -3.52676346461402      6.58483655840064      5.73811845814478
  C   -1.68003499420514      7.48890545189925      5.06845069429525
  H   -1.48827460508883      7.99045373014348      6.01424535875009
  C   -0.76517977182958      7.62322792182569      4.02371076656159
  H   0.14089512152661      8.21282011467363      4.12930683306702
  H   1.22328676212449      4.26044975801324      1.91834729665467
