38
Coordinates from ORCA-job ALIYEZ-oxo_1_1_tpss_d4_lanl2dz_631gpol_Mn3.opt
  Mn  10.39773589184489     11.69298847141250     10.57346298527058
  F   9.83409661499613     12.39093795004495     12.07300814691244
  F   9.87179410098472     13.16587894611637      9.67728917295006
  O   10.95733616356394     10.29165520245117     11.03750053174423
  N   10.94739461719269     11.19401385434189      8.59498558452857
  N   8.64539694667175     10.94039356552127     10.04635998099834
  N   12.17975208913206     12.55148352248160     10.62258891031141
  C   12.80399180327023     12.95061341850343     11.74640897397082
  H   12.23501993000072     12.84012324973033     12.66506025868324
  C   14.09460700315226     13.47928848107213     11.69750739009051
  H   14.58039529149944     13.80182132412942     12.61422235452437
  C   14.73656732956852     13.57603619690232     10.45731104160677
  H   15.74651256871992     13.97435387025488     10.39052113801057
  C   14.07036314245864     13.15705394074390      9.29764296620956
  H   14.54528296781712     13.22722550996338      8.32193440211157
  C   12.77358283450023     12.65310082475844      9.40617043305226
  C   11.90947564968324     12.28641573702566      8.21779239928641
  H   11.31962292253769     13.16569227957963      7.94200822299290
  H   12.52256930713757     11.99121590477748      7.35915488708556
  C   11.58405328734733      9.82498159156322      8.49305316450364
  H   12.44697782311828      9.83868032593950      9.16771059936476
  H   10.85621457216568      9.12055365124558      8.90999480986031
  C   12.00772607642643      9.39167178945803      7.08534254515027
  H   11.16519381208806      9.32567974719447      6.38613172036155
  H   12.44452725047598      8.38826177298377      7.16293701347274
  H   12.77274316907017     10.04522538753339      6.64853383339766
  C   9.64260875685631     11.25584397737647      7.84909920521910
  H   9.43081067529012     12.30847430204710      7.63970834216807
  H   9.70668989200755     10.71471445531797      6.89875881933274
  C   8.52397077153413     10.71299112701771      8.71359506269918
  C   7.37969044026514     10.09417917571112      8.20891482407497
  H   7.29095557428681      9.90458959295539      7.14186150629483
  C   6.35424043794723      9.73431536768149      9.09410056370252
  H   5.45480635691109      9.25254033581283      8.71726477489645
  C   6.49541504187403      9.99850512565477     10.46149924218823
  H   5.71659342828570      9.73836562586228     11.17296866831993
  C   7.66987770266081     10.60409866672557     10.91055961059440
  H   7.86220775665700     10.84273573210813     11.95253591405810
