50
Coordinates from ORCA-job BAFTAG-CH3OH_1_6_tpss_d4_lanl2dz_631gpol_Mn2.opt
  Mn  -0.22532836892659      0.04969476186181     10.55374515209468
  O   -2.36276799436059     -0.03917136506354     11.34404372819874
  N   1.93593492070803      0.55189881251944     10.52459554712994
  N   -0.38933181607229     -0.94128569934167      8.51998038242140
  N   0.15550602478403      1.19012875724212     12.47682962759213
  C   -0.59884059061834     -0.09542836494473      7.43948482837720
  N   3.76711202532175      1.15688613938142     11.66480046393744
  H   4.34732822028710      1.48989143546770     12.42722057067574
  N   -0.78514825025198      1.65552471258853      9.10056952260992
  C   3.04726504656992      0.32231532912955      9.72453695986029
  C   1.50075388671311      1.38717726356526     12.75871475453696
  C   1.75256722721552      1.84703495901301     14.03427460091286
  H   2.70376889974148      2.07060648232646     14.50275227148787
  C   -1.01169621979027      3.02545609170011      9.11454628453648
  C   -0.80850514705716      1.29073093088053      7.81394741493992
  N   -1.04293946839971      2.35577176060090      6.98610522607133
  H   -1.10463395480070      2.32601696289154      5.97393902536481
  C   2.40292913982318      1.04751890577880     11.67452259585560
  C   3.14029470208104     -0.19010917535386      8.42050446079046
  H   2.25023836615915     -0.48383220084809      7.87145938991351
  C   4.22010921805136      0.69887701924344     10.43096917360749
  C   5.57445157526860      0.07033120688875      8.58592361715207
  H   6.54880145393364     -0.04242554097054      8.11585207116345
  C   -1.18008183783125      3.48972683248162      7.78305582063524
  C   -0.20408993629995     -2.18636608140257      8.14156016675807
  H   -0.02805898097720     -2.98461818772374      8.85811856901423
  C   -0.56394598380160     -0.72406576156019      6.21210860552397
  H   -0.69908109450221     -0.30092155102931      5.22340316282389
  C   -1.08875030517839      3.91909230421285     10.19485344319987
  H   -0.95893927360466      3.56929347057620     11.21558446853287
  C   -0.60239225469796      1.47854376658877     13.51212959952270
  H   -1.68062830401722      1.36179909890594     13.49010106486320
  C   4.41479068901956     -0.30876086118154      7.86811949519512
  H   4.52663450670503     -0.70584264675434      6.86144104106543
  C   -1.33634668791017      5.25874681933960      9.89831928921049
  H   -1.40461997507118      5.98235109420680     10.70773517781767
  C   5.50186324417778      0.58309833713229      9.88271887344892
  H   6.39548458523418      0.87160253422483     10.43121064588749
  S   -0.26691988714242     -2.41898032869807      6.42187975316587
  S   0.26964316189599      2.02365353299386     14.90875374178778
  C   -1.42902234696206      4.83251328096957      7.47892312262728
  H   -1.55821163853889      5.18201245397698      6.45725554715635
  C   -1.50363364573329      5.70671829186296      8.56545495040825
  H   -1.69609917554816      6.76141321540331      8.38203591092088
  Cl  -0.18372255976301     -2.15706930299377     11.57087614483216
  C   -3.49920132491957     -0.02049452780415     10.44514791670076
  H   -3.35425206685100     -0.72414735491788      9.61443967796233
  H   -4.41535630543008     -0.26955252667459     10.99330159762259
  H   -3.56485576247492      0.99956116018137     10.05907051785634
  H   -2.23548573615769     -0.95989624687387     11.68799402622904
