44
Coordinates from ORCA-job BAFTAG_1_6_tpss_d4_lanl2dz_631gpol_Mn2.opt
  Mn  -0.33198221805489     -0.27228211543207     10.59839156782766
  N   1.75855985056141      0.33483043059708     10.63528718914315
  N   -0.45796040711735     -1.25314951460735      8.54777375530874
  N   -0.08992017411048      0.90680501894134     12.53487307527692
  C   -0.83943979064807     -0.38874452593673      7.52996387276379
  N   3.39832981422234      1.57850396982836     11.51873064507449
  H   3.88431124737910      2.19759589662924     12.15890961523600
  N   -0.89710404096416      1.33405025076530      9.23493910685244
  C   2.85642492743834      0.28346183759421      9.78304560752659
  C   1.19550030379646      1.38790830121448     12.74572392557168
  C   1.38620608768752      1.98372391943861     13.97507157557918
  H   2.28998829263712      2.41288580995010     14.39176435561540
  C   -1.07070982924879      2.71279831694121      9.28474020040632
  C   -0.97469881056359      0.99570950010436      7.94133472910838
  N   -1.19749266547396      2.08520084607804      7.14633102394788
  H   -1.27931272796079      2.07940643930318      6.13510860501529
  C   2.11805936422271      1.12062784731631     11.65852049275919
  C   3.03190373272662     -0.39039972834745      8.56392331240059
  H   2.23727025531445     -1.00153809830166      8.14522766236833
  C   3.90750924208146      1.06637488711012     10.32774091413983
  C   5.30338722443910      0.53572129910724      8.48351165749780
  H   6.25007363923426      0.61312325762080      7.95373317467623
  C   -1.26362547895297      3.20756307067383      7.96836742755747
  C   -0.43713229590097     -2.50304330785880      8.13755299145586
  H   -0.20307973905931     -3.33258611423577      8.79704589758426
  C   -1.08433382032016     -1.00503853963446      6.32054560618802
  H   -1.41531866996749     -0.56686201424147      5.38622649259396
  C   -1.08001402164895      3.58985113863235     10.38089012947777
  H   -0.94516433946883      3.21862053484727     11.39275615705366
  C   -0.85866319275522      1.10354262890409     13.58389251145802
  H   -1.88813162548685      0.76293026686139     13.62835972416099
  C   4.26524778826358     -0.25053709609410      7.92851988801752
  H   4.44060423160937     -0.76188719853866      6.98453073600555
  C   -1.28190885781210      4.94358004703079     10.11439532020376
  H   -1.30027949920642      5.65341022057808     10.93851099991515
  C   5.14716815516921      1.21056132383667      9.69606871404124
  H   5.94836344513780      1.81043900386179     10.12114881974786
  S   -0.85262197758410     -2.71417558499636      6.46740387302993
  S   -0.07578315088033      1.92039533344589     14.89917919625910
  C   -1.46734248032322      4.56410594297349      7.69394140294210
  H   -1.61735474827553      4.93505679228663      6.68285299977478
  C   -1.47148326763357      5.42202766677344      8.79575408336328
  H   -1.62878763113113      6.48628613968652      8.63591503267405
  Cl  -1.52016214137171     -1.97755410070742     11.62219593239876
