44
Coordinates from ORCA-job BAFTAG_1_4_tpss_d4_lanl2dz_631gpol_Mn2.opt
  Mn  -0.51598179754575     -0.31022461891282     10.63030650090260
  N   1.60153478448434      0.25808472312173     10.45659856062470
  N   -0.62202187305874     -1.22898611052324      8.87574906771440
  N   -0.27502930650891      0.73603132977112     12.28909429782415
  C   -0.64337175552647     -0.38765230924137      7.75640312871538
  N   3.10605488961806      1.75977697802951     11.17328799196215
  H   3.53731851745412      2.47801969508431     11.74509574982131
  N   -0.88282090360852      1.29977752638949      9.43068373555895
  C   2.68242874621824      0.24310406383723      9.58683555134641
  C   0.93706111990499      1.41754039152090     12.44918392755143
  C   1.02595799637695      2.13432312667775     13.62047159438354
  H   1.85704823482887      2.72336422470567     13.98895757825010
  C   -0.97636422859358      2.68580625366486      9.50712263460769
  C   -0.75508124198684      1.00157017373741      8.12548146947239
  N   -0.75450136877413      2.12433543081864      7.35060768367107
  H   -0.66973586239482      2.15386172096170      6.34023012278792
  C   1.88738894400454      1.17375810792838     11.38769971243388
  C   2.91678420715814     -0.53165303405061      8.43894120163648
  H   2.19635382891214     -1.27615371296167      8.11104015610296
  C   3.64927805049961      1.18812021111013     10.02515092272742
  C   5.06783736132445      0.62589348630761      8.20643172981358
  H   5.99310492407213      0.75022290197534      7.64839380245600
  C   -0.89621263425275      3.22414425779309      8.19534289065258
  C   -0.59116032905580     -2.50766245909249      8.52719711064215
  H   -0.58966253752773     -3.30479411325571      9.26363578387759
  C   -0.60043076417101     -1.05277984667500      6.55196549188906
  H   -0.61171874357881     -0.64296132085296      5.54922227915444
  C   -1.13119327427284      3.53528504834506     10.61392072602250
  H   -1.21768613890536      3.13556845186935     11.61955721840016
  C   -1.07130959915705      0.90706372940291     13.33701368623065
  H   -2.03820267305092      0.42494784146813     13.42147902333835
  C   4.11687685202744     -0.32335243723811      7.76027926601996
  H   4.33741458852358     -0.91065483992459      6.87153439586797
  C   -1.19182085644002      4.90601541606558     10.36428777474990
  H   -1.31799727635671      5.59402552757540     11.19729127409643
  C   4.85581521657767      1.39979702823407      9.34968426777890
  H   5.59425101204094      2.12060477697812      9.69291775392644
  S   -0.56999780177512     -2.76338898652934      6.81949039953877
  S   -0.40934710136413      1.93026094766100     14.56477017370699
  C   -0.95905737714089      4.59766392826229      7.93899558068186
  H   -0.90243452501030      5.00060490898378      6.93062147275263
  C   -1.10535211651706      5.42837567018023      9.05197039185127
  H   -1.16237982827077      6.50437566970042      8.90471305481370
  Cl  -1.01253735918124     -2.18275975890340     11.80104286364252
