50
Coordinates from ORCA-job BAFTAG-CH3OH_1_4_tpss_d4_lanl2dz_631gpol_Mn2.opt
  Mn  -0.34041044670787     -0.08136205623941     10.56294994738309
  O   -2.60587330942891     -0.15919980285290     11.27776774366551
  N   1.85695820136826      0.40682359569928     10.33929174837244
  N   -0.48756840458873     -1.01590078510496      8.80074878644613
  N   0.01519977698369      0.96557042302456     12.21781136127915
  C   -0.51542628501177     -0.17470723873763      7.68140218431120
  N   3.55201072288892      1.55307669206197     11.25959128690057
  H   4.07087139933297      2.11434021413347     11.92620715285992
  N   -0.70636586842949      1.51579628503494      9.35937544848103
  C   2.96815838422981      0.28013014465720      9.51999418696982
  C   1.30035445386148      1.47614003326537     12.42036272066730
  C   1.45456401440531      2.15375203874966     13.60844799493821
  H   2.34508249288715      2.62773763691037     14.00327870189424
  C   -0.80983051857735      2.90039558626082      9.43379847197476
  C   -0.61809435049943      1.21444203980746      8.05145113480372
  N   -0.65308808320303      2.33585609608173      7.27209107067979
  H   -0.58508006472943      2.36481953524813      6.26054554251255
  C   2.23993035740347      1.16792155963460     11.36538481625534
  C   3.13286787761751     -0.41873230208302      8.31292094272295
  H   2.31421085756231     -0.98852108470448      7.88135130884181
  C   4.05594100791457      0.99912116521310     10.08612287942862
  C   5.45973444879243      0.35764224015568      8.28150952572842
  H   6.42303950480422      0.36670165632709      7.77637674152731
  C   -0.77819721342205      3.43606821316732      8.11843319684437
  C   -0.43906895334936     -2.29354731754677      8.45556488105347
  H   -0.39741625402300     -3.08433896613439      9.19920366196784
  C   -0.46297485432965     -0.84152766534044      6.47725748666970
  H   -0.46841929512674     -0.43423604476531      5.47333245124936
  C   -0.93022169065179      3.75107885737158     10.54389345465617
  H   -0.96725525476130      3.35063808216275     11.55203814810038
  C   -0.78055265494073      1.23219535152083     13.24500989407061
  H   -1.81530742673806      0.91201725936601     13.26792792221415
  C   4.38760961361240     -0.36677645117186      7.70721509940113
  H   4.55452298220546     -0.90206474962838      6.77482569045871
  C   -1.01181875258050      5.12050046908326     10.29355964023427
  H   -1.10922307639837      5.81008396704194     11.12921509713142
  C   5.31737127139952      1.05445341808098      9.48369363512626
  H   6.14696701883491      1.60303865967435      9.92383793086035
  S   -0.41348309919465     -2.55271757256847      6.74892439643441
  S   -0.02065348030833      2.13417841403619     14.51184046805234
  C   -0.86151111970694      4.80859920500529      7.86184551026543
  H   -0.83996579287881      5.21024796972609      6.85146888571437
  C   -0.97730750628683      5.64034520927646      8.97766418165562
  H   -1.04707231638309      6.71569210943633      8.83027496643406
  Cl  -0.27858342807402     -2.09898404799680     11.71888359034920
  C   -3.67088070121681     -0.05249529318766     10.30738503080726
  H   -3.49101027531761     -0.71108618543625      9.44606957117444
  H   -4.63636635727068     -0.29551052912898     10.76805990969743
  H   -3.67426865127353      0.98916264407499      9.97617763256544
  H   -2.52950890069554     -1.09383867866220     11.58252596816705
