52
Coordinates from ORCA-job ESAHOV-OH_0_5_tpss_d4_lanl2dz_631gpol_Fe3.opt
  Fe  5.53113147123202     -0.75445318892375      5.09139415463227
  N   7.60873210920520     -1.13100296444660      4.19982442359343
  O   5.09465280596886     -2.51075692414733      4.56511080353614
  O   6.71299969052648     -7.48956053927890      1.16145884408136
  O   6.07050872926359      0.97233978470778      5.53075055700813
  C   5.70130370570769     -3.48427686741528      3.90536140520034
  O   10.11747759914428      5.53116975725598      4.19199332155060
  C   9.21131167627771      3.42453494526111      4.54294843569632
  N   7.47036998420038     -6.63968951631446      1.66573544523465
  C   8.37008922625503      1.18643345095792      4.88514736536060
  C   6.85662529717508     -5.56047277112853      2.44134593277930
  C   7.10531932623110      1.74046184430033      5.24315383283344
  N   10.31683159722236      4.30281071717422      4.15620078461917
  C   8.57337896906398     -0.29755338956389      4.98275193204959
  H   9.60056362978778     -0.54960014992712      4.66827723195114
  H   8.43960253234883     -0.61589781088440      6.02642360298423
  O   11.38687933250182      3.76490390897372      3.81106778532250
  O   8.71187322179358     -6.63831000099509      1.55634641421113
  C   9.41114026970508      2.03819429069702      4.52567662781059
  H   10.38732582981329      1.65170428154446      4.24310917938459
  C   6.93436246799599      3.15050152397438      5.26784830483889
  H   5.96670008455503      3.54615156360913      5.56692819523585
  C   7.68144320942734     -4.59328079728243      3.02493042233936
  H   8.75809590819506     -4.67417884449392      2.89591339081309
  C   7.98561860767322      3.99064444997221      4.92151377976490
  H   7.88108262071655      5.07156287298439      4.92978847377998
  C   7.11843413405744     -3.55622539033852      3.76848908642819
  C   7.98636275626745     -2.55425758013244      4.47191347748999
  H   7.89902132693396     -2.66659949364008      5.56123785519955
  H   9.04128128175449     -2.71472321225371      4.19176601045041
  C   5.46107813858209     -5.51859717047000      2.57725737805733
  H   4.85895924236731     -6.29130651674131      2.10849126394754
  Cl  3.23020260221286     -0.41607732177015      5.59701021738880
  O   6.12478162187158     -1.35395316714249      6.67553857714508
  N   5.19772302371222     -0.01255289541582      3.07112306237593
  C   7.56204550793297     -0.81732902692837      2.74955245307472
  H   8.54942156620559     -0.49881733965063      2.37727899323426
  H   7.29266353697580     -1.74172219145646      2.22582558917080
  C   4.44371335545719     -1.01778832353091      2.26732948231112
  H   3.55348695174324     -1.30972901278737      2.83136189644691
  H   5.06340288556419     -1.89744828715342      2.08187341764360
  H   4.15781328975838     -0.56455019220461      1.30573231844652
  C   6.53336895040104      0.27649887225994      2.45642443311063
  H   6.40953680248998      0.38532353631232      1.36677370320065
  H   6.87265747260868      1.23776265663775      2.84963810628633
  C   4.40324008884797      1.25471266402487      3.08556964667159
  H   4.34700779546898      1.65075657719697      2.05955639686824
  H   4.88985367641709      1.97770251585087      3.74205811158786
  H   3.40489512354199      1.03509464747307      3.46921357665272
  C   4.88750847585343     -4.48136398253809      3.30060325916409
  H   3.81026916367593     -4.40627315794793      3.42665402836279
  H   5.65861132731018     -2.20935683426435      6.81833701267238
