51
Coordinates from ORCA-job ESAHOV-oxo_0_4_tpss_d4_lanl2dz_631gpol_Fe3.opt
  Fe  5.71649892436991     -0.94439651791686      4.77830711032053
  N   7.59455233370219     -1.14026601279046      3.92598208407919
  O   5.18898106644406     -2.28934494458014      3.63952230127005
  O   6.72050120775827     -8.18029149570071      2.29157370147426
  O   6.22846103279131      0.60642330234888      5.74011073353286
  C   5.75691880899702     -3.48213456027502      3.51183414343367
  O   9.67792760211705      5.67696753032559      4.52952183608231
  C   8.97837854464873      3.47077865416910      4.67321942740618
  N   7.48650426755319     -7.24516132736499      2.58755405103270
  C   8.33536589022860      1.15359716919409      4.77475508502887
  C   6.88106869902483     -5.95199944019109      2.91846494941316
  C   7.11546008757979      1.52453455739874      5.40890204179019
  N   9.93957931388067      4.48995763371658      4.25852191255566
  C   8.61968418842143     -0.31013757572399      4.67069648920827
  H   9.59557678324100     -0.48450767318801      4.19324277872328
  H   8.63468470589010     -0.74385711472818      5.67925006744494
  O   10.96096374924391      4.10810582419470      3.65250648008985
  O   8.72954569938993     -7.32573056816358      2.62074507369879
  C   9.25739159697654      2.12614846699406      4.39859522826408
  H   10.19739586796778      1.87057455373313      3.91509522236383
  C   6.87658856869000      2.89269446553065      5.70810781251409
  H   5.95655281955176      3.15726139303380      6.22346167098268
  C   7.71763216003577     -4.88967339498603      3.27095350320286
  H   8.79161310371970     -5.05782737819080      3.29752965027943
  C   7.80742181648758      3.85864612676555      5.34333718197290
  H   7.64567328081545      4.91225716267423      5.55201683158692
  C   7.16457956740442     -3.64903882729773      3.59016835699390
  C   8.07154531917323     -2.55766350450004      4.09161540192942
  H   8.21853669488769     -2.68516302587730      5.17115270847855
  H   9.05292301128937     -2.63340591549075      3.59721430829203
  C   5.48615373327876     -5.81418547571087      2.86793800678967
  H   4.87538958430173     -6.67056237177193      2.59840690699137
  Cl  3.56406647462431     -0.63851250761512      5.44810224770853
  O   6.16447209020122     -1.95863512046798      5.99350467546750
  N   5.28741825206590      0.31750938521923      2.96597681083770
  C   7.46862235220056     -0.77205442628934      2.47675892440072
  H   8.47425852922225     -0.60813609934533      2.06027078293458
  H   7.02352918578752     -1.63498679117585      1.97005355521492
  C   4.32396969935478     -0.37106754065551      2.05560187712467
  H   3.44090738504016     -0.65564891789074      2.63427839277733
  H   4.77672977286699     -1.26903023499009      1.63311154308631
  H   4.04302944172554      0.31992216212243      1.24525758630830
  C   6.60754912535752      0.47681584267385      2.28678994137391
  H   6.46714512333431      0.65761147866191      1.20855588124288
  H   7.10699150920772      1.35122151169828      2.71021285581470
  C   4.70177456839710      1.64993724670442      3.28829976220156
  H   4.49598341672773      2.20124766236578      2.35693745432031
  H   5.39604241040439      2.22618919149975      3.90030575803502
  H   3.77408073003437      1.48737426837543      3.84373112452070
  C   4.92777348135168     -4.57779347815655      3.16098887646730
  H   3.85390642223350     -4.41436334836510      3.12505889293620
