56
Coordinates from ORCA-job ESAHOV-CH3OH_0_4_tpss_d4_lanl2dz_631gpol_Fe3.opt
  Fe  5.59094605022214     -0.78798375341543      4.82159328501999
  N   7.49881756291352     -1.10950508240370      4.05628174045086
  O   5.05692780922059     -2.45417717377950      4.25099702922811
  O   6.75625654318985     -7.40337808357560      0.83452883465713
  O   6.07738594029269      0.82222287579066      5.56753074713623
  C   5.66112083681594     -3.43405823474950      3.59224065434886
  O   9.80963511147273      5.61640778832230      4.09375827181430
  C   9.02014298398561      3.46179015431655      4.43624278114139
  N   7.49834673752966     -6.58115945389995      1.40423829583304
  C   8.29126513010489      1.19053421041983      4.76199209338303
  C   6.86266597074444     -5.50345949452759      2.16105889826833
  C   7.03300627332170      1.67194287510558      5.21357974597605
  N   10.06004151094905      4.39932965597443      4.01252707181810
  C   8.51625624518360     -0.28897996708272      4.80792725397404
  H   9.51303358096586     -0.53379830953996      4.40939490688551
  H   8.46082677339560     -0.64876337112160      5.84474487129477
  O   11.13256619807130      3.92102153891566      3.59341598671598
  O   8.74464375067118     -6.60998197923984      1.37422777811075
  C   9.27914227718800      2.08703592467505      4.36440851864381
  H   10.25103421294672      1.75072580478379      4.01162435803469
  C   6.80161106658926      3.06695966798300      5.29223098249823
  H   5.83853137980896      3.41387421219711      5.65910648957148
  C   7.67164342089222     -4.56897782451242      2.81642598552901
  H   8.75224267965193     -4.67142515089281      2.75362905899342
  C   7.79641199507492      3.96012423398952      4.90620579967872
  H   7.64697396704206      5.03495185079520      4.95033457254045
  C   7.07712563702322     -3.53920327647594      3.54375132791138
  C   7.88823183376299     -2.54988350020039      4.32150213360756
  H   7.74251833513845     -2.68490230308984      5.40170148718123
  H   8.95634271786798     -2.67117858055153      4.08455784463288
  C   5.46258471917000     -5.42699305558449      2.20723502726425
  H   4.87503019373049     -6.17378406898768      1.68141104324454
  Cl  3.43352254880345     -0.52067123272423      5.69247151141916
  O   6.02014937234613     -1.86548602714087      6.85344221672591
  N   5.19982910239702      0.14541907860846      2.79281761545392
  C   7.48759610470591     -0.79932422121866      2.58516832335961
  H   8.51157376562715     -0.58084043883209      2.24686897360723
  H   7.15371781519700     -1.71070037743675      2.07809379056493
  C   4.40263314426698     -0.78048552905666      1.95290320754469
  H   3.49085013925395     -1.04383442517545      2.49745577286629
  H   4.96599867301958     -1.69609204524836      1.75109268066164
  H   4.14474211210778     -0.29884664716707      0.99375380426114
  C   6.55409262072432      0.36762708414230      2.23322258164486
  H   6.52315522426751      0.47046459752801      1.13390287275054
  H   6.93996651577029      1.30609945275104      2.64060561570275
  C   4.45271434311701      1.41889745238997      2.93702029649684
  H   4.23956492497422      1.86131494998162      1.94846082578143
  H   5.04271241697111      2.12310167508188      3.52912201427308
  H   3.51780776428460      1.20820710288797      3.46514616111819
  C   4.86373527548316     -4.39120989038913      2.91473864727719
  H   3.78240570668027     -4.29373179266094      2.97048527726161
  C   6.05466063625530     -0.96824381850152      7.99481116892429
  H   7.04985101313028     -0.51592972997676      7.99734969034956
  H   5.29144543434423     -0.18849014066927      7.89211362644526
  H   5.90706903846992     -1.54070078663452      8.91960574073268
  H   5.09861686286483     -2.20914242017712      6.79320270938884
