50
Coordinates from ORCA-job ESAHOV_0_4_tpss_d4_lanl2dz_631gpol_Fe3.opt
  Fe  5.63557474482047     -0.77357754577576      4.98863249676795
  N   7.56307306931528     -1.15869686233255      4.25832262330253
  O   5.13706048770418     -2.48883198146746      4.59335403541124
  O   6.67094383526980     -7.50434808687281      1.19633888239263
  O   6.19902465681283      0.76979338681118      5.79747123126832
  C   5.70151488468991     -3.48428980118669      3.92222670106827
  O   9.80086570007782      5.58010082869750      4.06951202224354
  C   9.05696433986633      3.42428396343161      4.49961351987470
  N   7.43890060943940     -6.67811329679988      1.72294649731777
  C   8.36904156640577      1.15505357835581      4.89868944954252
  C   6.83775390028572     -5.58350019288439      2.48678385783757
  C   7.12508769686399      1.63193011632191      5.38931181926024
  N   10.06797837750252      4.36592048624010      4.01330509817225
  C   8.59950687107290     -0.32186475909747      4.97219929689694
  H   9.58758127330499     -0.57869778830089      4.56062865223804
  H   8.56210843968264     -0.65094253963625      6.02037163862065
  O   11.13157741014660      3.89095980603964      3.56986157073544
  O   8.68257691245027     -6.71288859205122      1.64562239399759
  C   9.33279203077326      2.05212490597024      4.44639506391657
  H   10.29546613103050      1.72019225554240      4.06543506174587
  C   6.87806701146062      3.02396862498146      5.45196457967386
  H   5.92691469919303      3.36656172543741      5.85239730109002
  C   7.67771740026187     -4.64431661576128      3.09454607999241
  H   8.75456265867981     -4.75556268241349      2.99358923517668
  C   7.84669559342471      3.91928913742720      5.00667401405198
  H   7.68687284801276      4.99311798541777      5.03378923843802
  C   7.11360391598199     -3.59900068446728      3.82400496607617
  C   7.94957368009803     -2.59458688463914      4.55416419356445
  H   7.83914407941984     -2.70433448667107      5.64267620975585
  H   9.01187057081411     -2.73054316852529      4.29996595263496
  C   5.44076206747533     -5.49965888159678      2.58523383849112
  H   4.83106305073333     -6.25352445555061      2.09608599582002
  Cl  3.52874550227912     -0.41546975554223      5.81727968447732
  N   5.30109248521557      0.09511207329314      2.96330841655555
  C   7.56260511899957     -0.90175090694536      2.77528948445709
  H   8.59224171866447     -0.71823331338636      2.43372667763678
  H   7.21031470279308     -1.82207768372440      2.29736766931907
  C   4.48083651839724     -0.85480632219612      2.16967062542528
  H   3.55519037315827     -1.05228003114095      2.71894052514328
  H   5.01546979482419     -1.79915202512884      2.03220997339735
  H   4.24959953555990     -0.42318574939562      1.18121788502864
  C   6.65658730662034      0.27128903985702      2.38555321106023
  H   6.61548598693198      0.33680480721281      1.28440261981965
  H   7.06251432491923      1.21510664108712      2.75979632389893
  C   4.58238872002185      1.39203967767756      3.05163758945556
  H   4.40073641856751      1.80319572202103      2.04430149383963
  H   5.18246551156010      2.09986051785587      3.63000708984848
  H   3.63402536611463      1.22308099148546      3.56956864197391
  C   4.87276625334532     -4.44890063239775      3.29672354409436
  H   3.79519384895651     -4.34585054527623      3.39548502719248
