28
Coordinates from ORCA-job CATBAA-CH3OH_1_1_tpss_d4_lanl2dz_631gpol_Co3.opt
  Co  0.29244171439564      2.55246205589288     11.14138060266562
  Cl  -1.28927156279394      2.40640912517828      9.53401501181262
  Cl  1.95648634448841      2.15849290625340      9.66751080171606
  O   0.68215545040615      4.48058702070708     10.81106509570066
  N   1.67958005194590      2.56067198367558     12.55832330283650
  C   2.32128989179798      1.21337861177410     12.73607416927862
  C   1.23791841236206      0.14110504219127     12.83675465882114
  S   0.03125623786436      0.36549168961717     11.42550166051390
  C   -1.55960447129106      0.46615726785723     12.36944557313269
  C   -1.59125406027333      1.72248948467934     13.23613738163978
  N   -1.20719061512577      2.90555144747927     12.40121315525210
  H   -1.68567717537706     -0.44667981115119     12.96371792181058
  H   -2.33089320486984      0.49231147708590     11.59012095561638
  H   0.68699524536506      0.19441755685857     13.78328391295801
  H   1.67317324437636     -0.86017534008872     12.74514053004765
  H   -0.87556027187606      1.65250586398227     14.06334991363574
  H   -2.59122287367047      1.86574228062366     13.66634682706765
  H   2.95542469470740      1.20678178033092     13.63210564756889
  H   2.94207145347591      1.05001220870249     11.85091117933459
  H   -1.96824818909998      3.12502212001105     11.73970938673919
  H   -1.06762245216157      3.73236146544157     12.99403155281138
  H   1.32454187078437      2.91294616797436     13.45531358305202
  H   2.38265154715898      3.23584979464439     12.23212533830368
  C   -0.36044413202808      5.45453443080331     10.46276395136033
  H   0.14154740068879      6.36678564090619     10.12705590194726
  H   -1.01486883339099      5.04445243059433      9.68829556738443
  H   -0.91125413893535      5.65818727384146     11.38387017411075
  H   1.25219842107613      4.33935802413370     10.01000624288111
