28
Coordinates from ORCA-job CATBAA-CH3OH_1_5_tpss_d4_lanl2dz_631gpol_Co3.opt
  Co  0.25442787712636      2.60005760120428     10.91128589314797
  Cl  -1.44218970941567      2.42728092901870      9.44687741923729
  Cl  2.15583694563341      2.27433385133520      9.62791810797046
  O   0.72110938987118      4.64619238291908     10.70738622712792
  N   1.63275653209407      2.47562003632453     12.61087567161208
  C   2.29241959628282      1.14177696301310     12.73649773655428
  C   1.24415485244267      0.02986611774084     12.83494545353491
  S   -0.00441734389978      0.15676421879088     11.46582539761264
  C   -1.55789359006455      0.41688928500733     12.43236767729463
  C   -1.56135646287179      1.69030420987382     13.28425264940738
  N   -1.29854739817291      2.89850891734166     12.45298733907817
  H   -1.72862077627619     -0.46453310548296     13.06215822259307
  H   -2.34602617532435      0.44635806656385     11.66889339575853
  H   0.70790553882351      0.04968582768146     13.79173439582394
  H   1.72915273993289     -0.94819384359595     12.74176780944494
  H   -0.78429786321295      1.64010930705102     14.05647700708689
  H   -2.52890628999754      1.76859115442271     13.79994110759852
  H   2.94746120902429      1.11010102257557     13.61812727294560
  H   2.90184679365097      1.00969561309774     11.83741984864949
  H   -2.12779954176980      3.11319457455404     11.88671603750121
  H   -1.14182762150957      3.71228427110388     13.05719264892078
  H   1.22075885042363      2.76220088391249     13.50518531313118
  H   2.33403642978651      3.18550320774588     12.36920604588037
  C   -0.29379713777941      5.63814381017142     10.35210851519818
  H   0.19028122445341      6.61337236996650     10.24445675238856
  H   -0.80524587135879      5.34024493762498      9.43045205396643
  H   -0.99881188181274      5.66385696481742     11.18587273822393
  H   1.39420968392031      4.59900042522036      9.98664126230971
