23
Coordinates from ORCA-job CATBAA-oxo_1_3_tpss_d4_lanl2dz_631gpol_Co3.opt
  Co  -0.28867831731735      2.80871171930367     11.06888040789628
  Cl  -2.18639372222490      2.34552535671076      9.93046211644874
  Cl  0.93801114003316      2.36339711769403      9.22990375506206
  O   -0.30140898987975      4.44569943488599     10.85509683588770
  N   1.45903162228246      2.86324654945671     12.08038323359834
  C   2.20619535152845      1.56035507977658     12.10939750346714
  C   1.27126283526650      0.43689838791125     12.54710760358072
  S   -0.26362733377116      0.48807383129682     11.48962173224203
  C   -1.57700177947048      0.50936858193023     12.79326257063180
  C   -1.51104274733498      1.79029093089985     13.61968997810035
  N   -1.47601779869162      2.97228930768496     12.70667489002878
  H   -1.47962062319287     -0.38584943615242     13.41873353858991
  H   -2.51413982547225      0.43994517364887     12.22729924222906
  H   0.98260188620473      0.52229217235390     13.60115847058844
  H   1.74661770341878     -0.53896200731052     12.39705537444739
  H   -0.61131440433201      1.82328880310814     14.24470022857202
  H   -2.38374369129632      1.86076768128137     14.28357459049787
  H   3.06197712990067      1.64407116704778     12.79230181922764
  H   2.56979143321904      1.39067882755902     11.09237407070472
  H   -2.38907262810498      3.10239087249432     12.24380607862972
  H   -1.27526109191838      3.84015304054816     13.21824705227075
  H   1.31718039709820      3.23268429598441     13.02835790119158
  H   2.00445345405507      3.56378311188608     11.56061100610673
