23
Coordinates from ORCA-job CATBAA-oxo_1_5_tpss_d4_lanl2dz_631gpol_Co3.opt
  Co  -0.32655459397168      2.78947248756298     10.90271000479800
  Cl  -2.37260862276727      2.27143145323287      9.96125411142808
  Cl  1.11076498495380      2.28863873901205      9.17550010415201
  O   -0.36233272163410      4.41291499951848     10.63568342153680
  N   1.44769304778780      2.87111062195209     12.12987312161396
  C   2.20409128235266      1.58128614868507     12.15374252682362
  C   1.26715483856100      0.42543240426423     12.50301053470096
  S   -0.27877369661049      0.48218916423464     11.45812166849239
  C   -1.57202760190743      0.53803095378817     12.78407780142428
  C   -1.47755476933776      1.80675832583441     13.62901382306828
  N   -1.47377493968048      3.00731349365381     12.74821664285623
  H   -1.47661839398802     -0.36656324063322     13.39715291266251
  H   -2.51946312166944      0.48435326524188     12.23371437082861
  H   0.96600028991418      0.44258731428437     13.55680015813519
  H   1.75399393647765     -0.53559106416807     12.30189899236869
  H   -0.55306033759512      1.82236947502923     14.21789743352412
  H   -2.31967851555915      1.84374420582876     14.33478818417923
  H   3.02465107474887      1.63016891708925     12.88268185307084
  H   2.62672148161951      1.44330894598053     11.15456172372044
  H   -2.40787573385110      3.18162077400192     12.35661743085064
  H   -1.21282313581718      3.85466047423033     13.26433860595129
  H   1.24332790309665      3.20055672801640     13.07956955626684
  H   2.00854734487711      3.60330541335979     11.67747501754683
