22
Coordinates from ORCA-job CATBAA_1_1_tpss_d4_lanl2dz_631gpol_Co3.opt
  Co  -0.28390016739314      2.62800417380967     11.08341179803022
  Cl  -2.17354346895193      2.38824607141628      9.95438827335895
  Cl  0.93437498532601      2.43616484657237      9.26396597844888
  N   1.41962854180568      2.87017787926432     12.07818397047195
  C   2.19574733619404      1.58024470861282     12.12154846381323
  C   1.27163351408138      0.43721558644898     12.54136548686650
  S   -0.27042982913590      0.48091129783502     11.48394169228697
  C   -1.58239368728438      0.51174448681383     12.79492687298723
  C   -1.50944880328807      1.80115233262968     13.61070402036740
  N   -1.42433766627838      2.97521589065624     12.68115272160423
  H   -1.47080098178240     -0.38143968431989     13.42198836778091
  H   -2.51995870094898      0.43724545282678     12.23049768129483
  H   0.97416282289431      0.50398109066801     13.59417528611128
  H   1.75042356838042     -0.53424552194869     12.37256057828049
  H   -0.62161097654092      1.81682699409796     14.25335314677345
  H   -2.39316538568451      1.88589805396011     14.25611820112519
  H   3.03894239091930      1.66472386161046     12.81869697569773
  H   2.57641832182098      1.41626010638280     11.10955685614923
  H   -2.34571066445634      3.14232505987552     12.24692387459239
  H   -1.19271884129338      3.82709288867779     13.20786585609485
  H   1.30518532169181      3.24710845382375     13.02737141240686
  H   1.96660236992441      3.56154597028616     11.54670248545709
