22
Coordinates from ORCA-job CATBAA_1_5_tpss_d4_lanl2dz_631gpol_Co3.opt
  Co  -0.35911498898805      2.60701810901594     10.79876182814053
  Cl  -2.34321583530535      2.34898617259216      9.81239368340108
  Cl  1.10812139300867      2.92995741154625      9.17225060352587
  N   1.39476341461330      2.80760141317521     12.13586325235497
  C   2.17442881694723      1.53207727360585     12.12057390209582
  C   1.29917402302655      0.35528347105358     12.56712863357363
  S   -0.26084825774960      0.25094876957248     11.56477982215915
  C   -1.55703997752884      0.52109486506291     12.85903635536723
  C   -1.45141935493584      1.86487376527406     13.58549364068876
  N   -1.49069007069602      3.00390726844682     12.62275972987760
  H   -1.50409452794829     -0.31029327702488     13.57226301360209
  H   -2.50189588725205      0.43700739421587     12.30656175505891
  H   1.02445282065127      0.42203691616581     13.62697171837476
  H   1.83664716245264     -0.58782154107426     12.41719955360356
  H   -0.51119397136430      1.93047760102420     14.14548692748355
  H   -2.27167726638322      1.93817967730243     14.31293497903826
  H   3.05258830610070      1.59954793306749     12.77728660138480
  H   2.51900544856304      1.38296394069017     11.09183894820029
  H   -2.45106776629677      3.14233137178076     12.28488358498896
  H   -1.23207093202288      3.87675814604095     13.09645348512709
  H   1.20337615903960      3.08873587482229     13.10397122429496
  H   1.96687129206821      3.55472744364388     11.72450675765789
