64
Coordinates from ORCA-job CAWWOP-OH_2_3_tpss_d4_lanl2dz_631gpol_Mn2.opt
  Mn  2.74160114551181      4.00848807780764     11.32551425350835
  O   3.03575043360917      4.01937707028568      9.56552687998259
  N   2.55190044372985      4.32689645679588     13.34869240389638
  N   2.05452873041619      5.88168505785626     11.31037045619229
  N   4.51991116003297      4.82623880342922     11.70797671726786
  N   3.36455334932639      2.13181995578856     11.93254876915370
  N   0.84522441351865      3.20459964343840     11.53066623012676
  C   3.13469439425373      5.72102816711625     13.42742542643596
  H   3.14340139304503      6.12299357215197     14.44744821348595
  C   3.34645635127940      3.27693161194753     14.05971854622574
  H   2.98153982445712      3.15088783610342     15.08661849695105
  H   4.38905899747925      3.61475401288507     14.10979101340114
  C   1.10058530998515      4.23487393815560     13.70021371270620
  H   0.63920179503625      5.21133730434133     13.50673099264401
  H   0.97912683411157      4.00825407963266     14.76663190754324
  C   2.31225833065288      6.55871729767098     12.46333900464881
  C   1.91101603472695      7.87758819610349     12.65243878687600
  H   2.12153122845344      8.38950359012093     13.58851174435040
  C   1.23456268935595      8.52330338656937     11.60556901252765
  H   0.90605154444579      9.55346667326782     11.72104024135501
  C   0.99273897108865      7.82902327242772     10.41428852172810
  H   0.48327052695738      8.30389155235192      9.58011646907603
  C   1.41420807313951      6.50163507514978     10.29820819795449
  H   1.26951367403462      5.91111339615332      9.39937226986522
  C   4.52226537229465      5.61524807679169     12.81765759219635
  C   5.66543894221852      6.27957761417448     13.25127057856606
  H   5.63873889073447      6.89475407484032     14.14757432038346
  C   6.84266953628338      6.13615127258915     12.50036680751235
  H   7.75401986139005      6.64133793939011     12.81130497869261
  C   6.82794843767477      5.34094549620639     11.34823240486678
  H   7.71861957144269      5.21925416564886     10.73764300494944
  C   5.64645578044737      4.69243551658556     10.97860024407633
  H   5.56392166907622      4.07204023084120     10.09217582274892
  C   3.28333306242845      1.99077814919011     13.27201094022398
  C   3.18668430221537      0.74352698899349     13.91734487939756
  H   3.11960501100802      0.70301468507160     15.00167450012265
  C   3.14963799667432     -0.40660365982174     13.14919379591683
  H   3.02609819125144     -1.38318927571281     13.61379245362275
  C   3.31041939582043     -0.31401871724835     11.74608136489803
  C   3.47666410723979      0.98920204687810     11.15480781914561
  C   0.44832574526332      3.19620392303811     12.82042835504640
  C   -0.52568630704765      2.31531298217780     13.32752537128721
  H   -0.79432442346375      2.35948573617698     14.38002754957694
  C   -1.09769220524970      1.38744244309077     12.47546555767512
  H   -1.81579065047569      0.65848339821518     12.84664697057902
  C   -0.77136283768666      1.41069806760023     11.09841394869645
  C   0.17877653805006      2.38736361948460     10.63086166850518
  C   3.35672942239624     -1.46912849317335     10.91585490494017
  H   3.21645643672288     -2.44604627390761     11.37495836503463
  C   3.61358983693902     -1.35309227656377      9.56321853033135
  H   3.66127438411174     -2.23880983928390      8.93435171256157
  C   3.87142618014229     -0.07535456185345      9.00436053760409
  H   4.14988740969972      0.00360344152997      7.95546166532087
  C   3.80359555096199      1.07219071546259      9.77854661440805
  H   4.08776833839267      2.03085965437046      9.35803517668728
  C   -1.38559474638567      0.53100515224280     10.16326711813554
  H   -2.09089920293893     -0.21146133511181     10.53226132570362
  C   -1.12056805087906      0.64474102828276      8.81200299094739
  H   -1.60213329639098     -0.02032735994739      8.09926121888930
  C   -0.25900009187835      1.67172956485567      8.34851616425212
  H   -0.11550630119225      1.80751424352606      7.27852033818250
  C   0.38025244378464      2.52400545963275      9.23486742554818
  H   0.96475816905027      3.35909708328035      8.86291039811776
  H   2.74257188122605      3.20665099490502      9.10353631674579
