62
Coordinates from ORCA-job CAWWOP_2_2_tpss_d4_lanl2dz_631gpol_Mn2.opt
  Mn  2.67754287896117      3.86325315472205     11.44900445730620
  N   2.53461656331937      4.24940657332009     13.41591179966109
  N   1.99076757115850      5.72394064559066     11.26671150576046
  N   4.47581636016452      4.68849353301928     11.67210018069824
  N   3.33882124937728      2.06965960827990     12.03530774666962
  N   0.82755796937862      3.13711902554741     11.63478100729615
  C   3.11728849926054      5.66034932724729     13.38257328778630
  H   3.15128912559233      6.13217628203550     14.37248770269863
  C   3.36228043524682      3.23802704442534     14.15195420605645
  H   2.97052189094943      3.08898931309719     15.16573612565532
  H   4.38006398955788      3.63840219798630     14.24467205727576
  C   1.08510636176383      4.17888527648798     13.80320813106821
  H   0.66043306875484      5.18654980614354     13.70448588091201
  H   0.98772972032853      3.88142025613579     14.85441562328788
  C   2.26256609526876      6.44018834783630     12.39804042053862
  C   1.82602544883979      7.75138694379923     12.57413654281177
  H   2.05593058271774      8.28729519058346     13.49216953075159
  C   1.08453319675328      8.35467499398234     11.54853546900416
  H   0.72980768744010      9.37681446268741     11.65618312621969
  C   0.79844429504112      7.61887553110544     10.39087919211544
  H   0.22373209410347      8.05187281230487      9.57658955754178
  C   1.25693183559876      6.30503026599029     10.28815142193473
  H   1.04503201346832      5.69054920325453      9.41669994019056
  C   4.49146338850499      5.52319707739064     12.75383061404588
  C   5.64403167128652      6.18323418114361     13.17261679274398
  H   5.61614769441634      6.83675306588998     14.04141110234619
  C   6.83146897730896      5.97895385651344     12.45527708240139
  H   7.74844435577242      6.47926633891041     12.75707980384471
  C   6.82032216554932      5.11425188361773     11.35291429680724
  H   7.72136735663633      4.92856596693016     10.77452338008823
  C   5.62994044174799      4.47986791250256     10.99465898529127
  H   5.57730439841798      3.79216877376674     10.15420767914234
  C   3.42210312490347      1.94084579957540     13.37160412151323
  C   3.63162040158295      0.69938686834914     14.00418787568754
  H   3.67511771377735      0.64633423398054     15.08933422610766
  C   3.77629061999935     -0.43715793099867     13.22486898945140
  H   3.92310069320900     -1.41059480460273     13.68894053598445
  C   3.75358988014083     -0.33180967596307     11.81131639294205
  C   3.54668024076341      0.96692711461925     11.23458382397044
  C   0.33088168845920      3.24379341866890     12.87991806455032
  C   -0.85805032380127      2.60106029780137     13.28021478749802
  H   -1.21092255916844      2.70715682009804     14.30320923719079
  C   -1.55609422301200      1.84002048648380     12.35669799865035
  H   -2.46785390965361      1.32040633462026     12.64511749429549
  C   -1.09217476099924      1.75110669619475     11.01933494627607
  C   0.11944224323080      2.44140719513432     10.67907106811965
  C   3.94283889982456     -1.44558432506403     10.94616544183951
  H   4.09286587216066     -2.43067933668357     11.38357075693242
  C   3.95411034403266     -1.27259560347473      9.57411307414776
  H   4.10759559557474     -2.12521446745306      8.91709374375716
  C   3.78821099579166      0.02154419959902      9.01313733072306
  H   3.83143489571874      0.14663559925820      7.93338516399459
  C   3.58559384424752      1.12195321316557      9.82863307146415
  H   3.48883134860446      2.11916430291550      9.39688560999500
  C   -1.77687986004561      1.02739233786146     10.00357087322218
  H   -2.69149738440563      0.49735561860832     10.26200309746411
  C   -1.29492265095132      1.01388651210185      8.70703811770604
  H   -1.82671842482691      0.46631492233655      7.93273255039806
  C   -0.11537524994387      1.73031258543266      8.37187424027513
  H   0.23476901856699      1.73392884128002      7.34194697811082
  C   0.58216913643430      2.42946126726402      9.34228471595049
  H   1.47541340709925      2.99902262664330      9.08051102182942
