64
Coordinates from ORCA-job CAWWOP-OH_2_5_tpss_d4_lanl2dz_631gpol_Mn2.opt
  Mn  2.72473103343871      4.06982069098122     11.11386252449187
  O   2.91323688192696      4.12147668850923      9.33521344179482
  N   2.49993530592980      4.37569137948666     13.17083184738563
  N   2.13049533038969      6.05971746424459     11.18681645801825
  N   4.71434187220335      4.96836274998143     11.76390814440026
  N   3.36252745272195      2.15636101040105     11.71583623695893
  N   0.63912839807284      3.13350392827453     11.52678091885194
  C   3.10987354488445      5.74948799138030     13.35689804870820
  H   3.01795473501663      6.09421088406209     14.39450377019762
  C   3.23528219336325      3.26451248567601     13.86775351449251
  H   2.82496604105992      3.11418028647108     14.87407683656154
  H   4.28536801416783      3.56391710720710     13.96908457033138
  C   1.04348912086400      4.35943648058530     13.54679593824241
  H   0.60742162671564      5.31304484925991     13.22706938761828
  H   0.94629683295286      4.28465481432150     14.63791524398717
  C   2.38059744614366      6.66198462719235     12.38071002712337
  C   2.06686816724203      7.99936728256194     12.60526724578847
  H   2.27285881054001      8.46161056311853     13.56774424067875
  C   1.48338490760372      8.73135754551157     11.55818292563273
  H   1.22444958939318      9.77754127794739     11.70481694573705
  C   1.24344212252936      8.10769025844288     10.32802676937155
  H   0.80191925441623      8.65134438084337      9.49720644902624
  C   1.58183153766266      6.76020027357222     10.17422249687190
  H   1.43899818251147      6.21257232827571      9.24672423633724
  C   4.56323016909031      5.67748964583166     12.90631119516432
  C   5.62478307361956      6.31999503918813     13.54072337000501
  H   5.47152484790921      6.87634132836414     14.46290405019181
  C   6.89652264254882      6.22600167854896     12.95246682554012
  H   7.75016704369486      6.71383174742242     13.41765119409043
  C   7.05296335635253      5.50123559860491     11.76545187103395
  H   8.02307179329055      5.41530077618745     11.28297932648412
  C   5.93294549833403      4.87927085225445     11.20086727659861
  H   5.99430233112233      4.30239700171550     10.28123037762011
  C   3.16437258140146      1.99911664739256     13.04175363145968
  C   2.94093191122947      0.74221329783196     13.63355528185963
  H   2.78616064762941      0.66916414029667     14.70697567471701
  C   2.89501222271041     -0.38159938388560     12.82329538375021
  H   2.67860508210744     -1.36006944475595     13.24889882493086
  C   3.16057014634040     -0.26760440056002     11.43782017922685
  C   3.44821235656721      1.03815943936445     10.90642009202691
  C   0.35556400913412      3.22024380825192     12.83393454786147
  C   -0.51270330935603      2.33471456684841     13.50529667644799
  H   -0.71385668579588      2.46714524521264     14.56581196149051
  C   -1.08309883870140      1.29513851134997     12.78907515938444
  H   -1.73797985149216      0.57733792827147     13.28041148872919
  C   -0.81985343217462      1.16640176401196     11.40321034204531
  C   0.03660862401224      2.14449546306490     10.78283453879953
  C   3.18728905702211     -1.39352192605534     10.56802828359628
  H   2.95652377063874     -2.37612138224288     10.97539702381862
  C   3.53527303611593     -1.24168247153614      9.23894391336842
  H   3.56839677556023     -2.10510722358461      8.57886234965021
  C   3.89925749958806      0.03736702861792      8.74264420653878
  H   4.23656566602542      0.13430961824966      7.71269313071504
  C   3.85480349844831      1.15970771515938      9.55512429103783
  H   4.19677862767350      2.12422739419072      9.18880648574392
  C   -1.37839980302614      0.12806447820943     10.60648612317459
  H   -2.02428282054769     -0.60900901795853     11.08038815358614
  C   -1.12166181276795      0.07467687051169      9.24919451440717
  H   -1.55737661746691     -0.71455241354464      8.64098421382386
  C   -0.31772667248665      1.07149695413105      8.63423849713501
  H   -0.16322041497238      1.04318016152875      7.55759348545050
  C   0.25055156245660      2.08752150413327      9.38312201677084
  H   0.81450153601984      2.88660086688091      8.91014147713966
  H   2.70733249039420      3.29910324418803      8.84501434597535
