68
Coordinates from ORCA-job CAWWOP-CH3OH_2_4_tpss_d4_lanl2dz_631gpol_Mn2.opt
  Mn  2.64586281522286      3.76005929544405     11.50469993958953
  O   2.74546089207456      4.11874959566352      9.21069032940089
  N   2.47502058429010      4.17173534248095     13.70731548126932
  N   1.90079571330668      5.67773006365412     11.56210972568128
  N   4.45578205259662      4.57925842891734     11.83344492201839
  N   3.40608695607103      2.01450142830640     12.19784052494326
  N   0.75011743074661      3.08598881860390     11.84796448073827
  C   3.12932786670622      5.51825678478696     13.62577233244730
  H   3.23195809916541      6.01007407070608     14.60366636057158
  C   3.24346192867615      3.10994339300797     14.39289735728009
  H   2.77595370056260      2.84816386206309     15.35192469258661
  H   4.24478226231732      3.49906032159989     14.62538926262734
  C   1.03302902350753      4.18718277372915     14.03720795875613
  H   0.68878155340235      5.22710066841245     14.10760687540071
  H   0.86432984560522      3.73828681172929     15.02685952008709
  C   2.27394485800191      6.35292826436044     12.68493590169795
  C   1.88842481712694      7.67015303622715     12.92812516241471
  H   2.20620394732383      8.17104885544716     13.83986636934756
  C   1.07846791948131      8.32048706048907     11.98708765617917
  H   0.75972158430488      9.34710211013069     12.15085306607116
  C   0.66951864517237      7.61763205137054     10.84595756731331
  H   0.02335640060864      8.07808239718076     10.10313821235676
  C   1.09439837890700      6.30029171889272     10.67145897078355
  H   0.79341071363257      5.70856863084144      9.81217857501241
  C   4.48791645686420      5.34063519054392     12.96612777811585
  C   5.66605488864191      5.91938699022081     13.43576901368123
  H   5.65310778308599      6.51073952030464     14.34867108929979
  C   6.85278116066692      5.72382735189771     12.71654983819809
  H   7.78472740577848      6.16517718266178     13.06129734419187
  C   6.81855661582439      4.94034043413585     11.55506544886618
  H   7.71721727335082      4.75700138748515     10.97196499635686
  C   5.60896743465145      4.37592574739923     11.15097425577402
  H   5.53876802551976      3.74092063792076     10.27193519743943
  C   3.42497858372726      1.86563194602286     13.53516700825038
  C   3.70889186255001      0.62909793631048     14.15382077016844
  H   3.68764271243988      0.56042321468780     15.23920584847682
  C   4.00432130246617     -0.47421171843623     13.37450898116534
  H   4.20102004645232     -1.44247093614038     13.83084721857368
  C   4.08168278157115     -0.33248153102126     11.96581115999068
  C   3.79723624054487      0.95466792586187     11.39784963719832
  C   0.18212800985704      3.45975985510962     13.00693768597344
  C   -1.18505263407966      3.24099290290722     13.29001906349342
  H   -1.58611762927738      3.56019081294337     14.24977308424260
  C   -1.99450234234174      2.65049246560583     12.33965084759566
  H   -3.05651926833533      2.50150507069005     12.52536005290157
  C   -1.42526366082921      2.20850268042313     11.11746156201883
  C   -0.01839855815797      2.40629686908453     10.91613021090157
  C   4.45279191922341     -1.40123620102600     11.10355280599992
  H   4.65590607999214     -2.37780102346627     11.53905468469213
  C   4.57342804999677     -1.19699377377160      9.74085854749435
  H   4.86738133828512     -2.01572020288060      9.08844417791496
  C   4.33904707988710      0.08975267690218      9.19261736615780
  H   4.47499293791842      0.24926141775274      8.12464629827236
  C   3.95527845924031      1.14754788299684     10.00280184274787
  H   3.80287306131574      2.14170054153740      9.58144486703748
  C   -2.18369958239056      1.55246973628042     10.10879180446485
  H   -3.25199061004600      1.41448141765823     10.26512984482036
  C   -1.57245332193932      1.08150616388200      8.96044115413310
  H   -2.15740193545249      0.57494674611028      8.19656718572863
  C   -0.17166040583969      1.22508394927748      8.79525815011988
  H   0.31182907015875      0.79847274594658      7.91848136329283
  C   0.59081333316166      1.87748816900794      9.75238884176630
  H   1.67452767376820      1.90359507215230      9.66437168469577
  C   3.38655078638472      5.21687056857371      8.49597774970444
  H   2.63672964341152      5.92033518306365      8.11743040455537
  H   4.02359595087215      5.71786186624032      9.22709436683825
  H   3.99108373540674      4.82447343001440      7.67092265670879
  H   2.08434425686292      3.69342591308376      8.62643486540469
