64
Coordinates from ORCA-job CAWWOP-OH_2_1_tpss_d4_lanl2dz_631gpol_Mn2.opt
  Mn  2.76835207388392      4.01195214272299     11.30852042340012
  O   3.16689888839977      4.01462741986968      9.57282221276608
  N   2.56076293238357      4.33095862469037     13.34049897851989
  N   2.06492838212710      5.89045760638799     11.30794643179545
  N   4.54211098038546      4.82419885428018     11.72110446207878
  N   3.32827709628435      2.12085705731725     11.95894197762505
  N   0.85467365952453      3.22552743590477     11.47649356102809
  C   3.13460433706557      5.72549773361970     13.42509954411798
  H   3.14066969358683      6.12655352436397     14.44581353393721
  C   3.36562073139009      3.30327021977729     14.06749714574362
  H   2.99941358200715      3.18678641682618     15.09553209710461
  H   4.40353964383817      3.65515407035799     14.11900556355397
  C   1.10626612685894      4.21384619375398     13.67154935346931
  H   0.63296601945119      5.18598991048193     13.48481399465761
  H   0.97163930828742      3.97075151796532     14.73276281663243
  C   2.31344130387189      6.56319606727561     12.46383257247222
  C   1.90060572926370      7.87758705752029     12.66147413187715
  H   2.10539478028958      8.38431306462055     13.60158406764693
  C   1.22017489177862      8.52467486463939     11.61867796783367
  H   0.88311889498614      9.55143590646001     11.74004812483019
  C   0.98415814260757      7.83539814443537     10.42331587874740
  H   0.47092987531370      8.31011012966979      9.59138003022692
  C   1.41781033390466      6.51295641717815     10.30149913610441
  H   1.27281329495219      5.93162046634470      9.39713469501350
  C   4.52824397547632      5.62381691874476     12.82260203895173
  C   5.66447831063424      6.29383252673054     13.26505194158020
  H   5.62509569619498      6.91885271426588     14.15409259611025
  C   6.85331204343060      6.14059637297369     12.53390640333327
  H   7.75965221914683      6.64999432792731     12.85266866550569
  C   6.85750512900001      5.32854072449792     11.39393602447091
  H   7.75848459302858      5.19626135707606     10.80091441215614
  C   5.68065702320198      4.67675283839046     11.01337126894162
  H   5.61078912962738      4.04241787871017     10.13529318447737
  C   3.31947089648525      2.00593078596617     13.30179756300890
  C   3.30450167428585      0.77258656998062     13.98113978964878
  H   3.29394457347398      0.75876092232835     15.06818500653383
  C   3.28181140343301     -0.39693462561272     13.24453167109311
  H   3.23558744310872     -1.36610659477166     13.73804992679498
  C   3.33750601073223     -0.33244389705880     11.83237948474499
  C   3.39863854028277      0.96126572748720     11.19804660225063
  C   0.47425258679768      3.17666546785377     12.77028939811178
  C   -0.46085857111469      2.24827705193032     13.26688073720688
  H   -0.71909623417988      2.25689583500110     14.32282635265532
  C   -1.00308054107292      1.31510926487444     12.40029356220639
  H   -1.68323029844714      0.54695466133112     12.76391343892211
  C   -0.70028693950330      1.38536649147277     11.01907407169843
  C   0.19888063282090      2.41433124846719     10.56682642650984
  C   3.36048190548942     -1.50779789509195     11.03087326096305
  H   3.30766301223218     -2.47584388717965     11.52573928740113
  C   3.47748293665203     -1.41967896083110      9.65709461831043
  H   3.50546493891239     -2.32028948857345      9.04839683253880
  C   3.60231691973265     -0.14722904069597      9.04441776883043
  H   3.74922970768870     -0.08397968432398      7.96807355235316
  C   3.56211497804641      1.01784569448344      9.79318104067417
  H   3.71560300996657      1.98210178303248      9.32421651363211
  C   -1.29130575398730      0.50692511408305     10.06763937412059
  H   -1.95587833801304     -0.27781870179007     10.42441735189274
  C   -1.05805278356569      0.67511765080276      8.71587358812612
  H   -1.52234125883233      0.01099846068709      7.99097918068352
  C   -0.25817964280439      1.75793159182411      8.26883012271359
  H   -0.14793395043235      1.93772091974136      7.20145586665249
  C   0.35958378817910      2.60729223642980      9.17238086909024
  H   0.88001568180940      3.49111741380775      8.81396953171937
  H   2.59036484964057      3.50517137856394      8.96683197220130
