66
Coordinates from ORCA-job BEXNEZ-CH3OH_3_3_tpss_d4_lanl2dz_631gpol_Co3.opt
  C   11.17622766429770      5.83012122378397      3.31360078897495
  C   10.16463639264693      6.74094454928619      2.99125288110332
  H   9.84960549679465      7.50379859990620      3.69351822715957
  C   9.55386437354531      6.66035956807360      1.73752163642414
  H   8.76507645876184      7.35835177870391      1.46513958389611
  C   9.96751449321621      5.67652462649906      0.83603391269327
  H   9.49853801300032      5.61108673441107     -0.13863069655399
  C   10.98405496490876      4.79299819141325      1.21318209699386
  C   11.89921188935075      5.84554231347985      4.66649036039678
  C   11.35305887900299      6.98534323963425      5.55277734944198
  H   11.49608082153242      7.95688089570902      5.06914276224316
  H   11.86094615681686      7.00341714891543      6.52273174639763
  H   10.27980361830860      6.86053698440160      5.72819505300429
  C   11.70606117735799      4.48559465498778      5.37215461391789
  C   11.01195286929742      4.37185924116692      6.58498250481389
  H   10.52558848305908      5.23820714859585      7.01765601055180
  C   10.95471898736768      3.14810117073869      7.25951549145707
  H   10.41407628911763      3.06672866827689      8.20006904218966
  C   11.63426803846139      2.05221758260718      6.72236667373955
  H   11.67168895853060      1.09079097357465      7.22809304198096
  C   12.28654304834169      2.21580721881509      5.50366994829900
  H   12.85183627519821      1.40179257633334      5.06954380234529
  C   13.41917321265027      6.02181088986676      4.45218614312466
  C   14.10366817708450      7.15366924362863      4.91703158767579
  H   13.55644419564871      7.97496506441772      5.36467025634689
  C   15.49735203978351      7.22940852092293      4.82696126502308
  H   16.02155254812222      8.11147079944489      5.18855328522957
  C   16.19779858080766      6.13898954359922      4.30470335735244
  H   17.28374420263844      6.11593734473330      4.26405361277884
  C   15.46604035908246      5.05313507720121      3.83362096841725
  H   15.96865885107166      4.17365848741230      3.45260449663763
  C   11.49636706094669      3.68406948777540      0.28254160838304
  C   10.74382299102183      3.72550038980612     -1.06445335547151
  H   10.88583938560079      4.69071613006840     -1.56126694337066
  H   9.66833077583762      3.58840712496675     -0.91308489345601
  H   11.09905948526554      2.93643973954611     -1.73565221025710
  C   13.01118551958558      3.86301796236987      0.05339799887743
  C   13.53848438767050      4.13201712709667     -1.21726001866975
  H   12.87598094764912      4.27300759703854     -2.06296660064809
  C   14.92115751080661      4.21086069282853     -1.41207353330827
  H   15.32314262849201      4.42227865994870     -2.40066180196153
  C   15.76720522799653      3.98870391191793     -0.32297317426993
  H   16.84961143817876      3.99856846040461     -0.42141965656701
  C   15.18950919639137      3.74272350290352      0.91864070813054
  H   15.80997666251714      3.54292181084049      1.78026809290196
  C   11.29851209922466      2.31418127140321      0.96161944131358
  C   10.44720131091652      1.33806460142269      0.42538683973434
  H   9.86024848867573      1.55440287050108     -0.45947146799070
  C   10.35487013435275      0.07399116473238      1.01600735071848
  H   9.69128551374220     -0.67909348266437      0.59640358686945
  C   11.14935900291154     -0.20668810202913      2.13005952362490
  H   11.15299240295626     -1.18428298314906      2.60516839252203
  C   11.96306787448237      0.80570272435681      2.63023646621424
  H   12.61542901406209      0.61935979738278      3.47139780460137
  N   11.56534093456807      4.87892535399010      2.43281685083765
  N   12.28861427456908      3.38726628901992      4.82147432417882
  N   14.11133416331237      5.01039456435129      3.86056239239444
  N   13.84888579748240      3.70883653521415      1.11482303898399
  N   12.01544150119770      2.04535651669991      2.08513884303393
  O   14.63633946041635      2.10382516637028      3.52997622201094
  Co  13.08835933695826      3.51266243802127      2.96914352877359
  C   15.29334584227625      0.99966226668462      2.80862195965321
  H   16.36137170678417      1.21441718303797      2.70162925027342
  H   15.14792185211816      0.06473285535871      3.35882622564302
  H   14.80927133707243      0.95324269090714      1.83237970830751
  H   15.03547921815449      2.18911762033538      4.42117169393202
