60
Coordinates from ORCA-job BEXNEZ_3_5_tpss_d4_lanl2dz_631gpol_Co3.opt
  C   11.23561627220963      5.60764495852073      3.43959503381683
  C   10.24566287751992      6.54814495940583      3.14198687161301
  H   9.87206162675801      7.22910455607768      3.89857223199859
  C   9.74056478868519      6.61739911428442      1.83539038343862
  H   8.98895645495566      7.36414575014739      1.58670093187227
  C   10.20111335720008      5.73868855620043      0.84786441843362
  H   9.81041278729053      5.81062530136235     -0.16068480101780
  C   11.15681171487248      4.77591983968606      1.19065452266818
  C   11.97508571634286      5.54299814249038      4.80216892260669
  C   11.36047450804944      6.58155925673422      5.76568638226783
  H   11.45842107355054      7.59258867731146      5.35751290991627
  H   11.86596458800917      6.55812334361941      6.73652405184269
  H   10.29559371534242      6.38267104147817      5.92872704600801
  C   11.95115279097642      4.14201323774840      5.47752523000618
  C   11.33527395653962      3.90140018122535      6.71022208318991
  H   10.73397460306425      4.66834180465274      7.18602598258068
  C   11.51623882454721      2.66985586792777      7.36286948343163
  H   11.05373517874158      2.50159378204703      8.33364814237206
  C   12.32398221559700      1.68264505429896      6.78012015391017
  H   12.52059515614079      0.73536226492033      7.27581553634349
  C   12.87712562366598      1.94793490570794      5.53201417129092
  H   13.51147672285339      1.22639826652246      5.01994524062423
  C   13.46172377862086      5.88258541519296      4.51669441198484
  C   14.12434234576082      6.94885843599495      5.13445778807232
  H   13.61453880850048      7.57528174297202      5.85818365875137
  C   15.46724074929046      7.21268044805500      4.81803791807286
  H   15.98571828144806      8.04098619953671      5.29657734350818
  C   16.11513937214538      6.40960997723553      3.87711022844782
  H   17.14826607098951      6.58362928010268      3.58766940115061
  C   15.39733160161894      5.36283380481328      3.29689066203345
  H   15.85258075792122      4.72855172721414      2.54447803171379
  C   11.65457737052002      3.67696568860620      0.21894768162362
  C   11.01493756036670      3.89696708296251     -1.16840870545571
  H   11.30734325928912      4.86830812392669     -1.58198295841098
  H   9.92274046587734      3.86862119845662     -1.09911879970939
  H   11.32687600851995      3.11708127090724     -1.86999040785549
  C   13.20380601730714      3.60905446841553      0.08379631665237
  C   13.84824395226533      3.73146668327956     -1.15584499865190
  H   13.29302094393818      4.02184931977947     -2.04054659030389
  C   15.21596075043053      3.44586531895800     -1.27172576281351
  H   15.70951852718879      3.54264447578645     -2.23662371958164
  C   15.92452996147284      3.00638418562614     -0.14844258598005
  H   16.97242770507953      2.72278502662095     -0.20380671988793
  C   15.24951237086929      2.95364280857195      1.07022755562499
  H   15.75251449394522      2.63567794297348      1.98159006813870
  C   11.19851966062846      2.31294969974297      0.81121160903973
  C   10.36713653930031      1.42418293539350      0.11755734294243
  H   10.00228222697622      1.66325559820756     -0.87518551180161
  C   10.00436144713113      0.20241138945048      0.70864128392251
  H   9.35659526473447     -0.48774804780990      0.17209671027808
  C   10.47475536500572     -0.10505895344265      1.98713801674050
  H   10.21549063721209     -1.03558150538916      2.48546464863365
  C   11.29306954870631      0.82531886837399      2.62871147391307
  H   11.66661706726472      0.64331449296160      3.63218432187717
  N   11.63145843361603      4.75335702545449      2.46032104908718
  N   12.65799187775090      3.12828696086958      4.88927861232888
  N   14.11087719103434      5.09525510183730      3.62089172221238
  N   13.93740577540535      3.27825032913203      1.18344803236321
  N   11.65367106579890      1.99776630930445      2.04950690163005
  Co  12.95298219315560      3.37925030755564      2.95677904049393
