62
Coordinates from ORCA-job BEXNEZ-OH_3_2_tpss_d4_lanl2dz_631gpol_Co3.opt
  C   11.34461839440944      5.70148484450387      3.41756649918947
  C   10.37183103866303      6.65920150836490      3.11983955886014
  H   10.10241406531547      7.41192382497982      3.85064290477738
  C   9.74288176630545      6.64852342936778      1.87341166617935
  H   8.98409831927296      7.38944574310062      1.63055534240729
  C   10.10573266812100      5.67271017646458      0.94709786659398
  H   9.63075187268438      5.64703246478416     -0.02633738410961
  C   11.08324860420962      4.73156090177322      1.28340202950212
  C   12.05371219294275      5.69094107280310      4.77481045662276
  C   11.54333572781875      6.83062151743933      5.67912948852646
  H   11.72631758517983      7.80686822171884      5.21850975273329
  H   12.05414681779971      6.81124069076843      6.64736024522376
  H   10.46812910465546      6.73336384959266      5.86137257033803
  C   11.81361806134252      4.32630744091225      5.43648485785687
  C   11.20888671210980      4.19645868443846      6.69420210943749
  H   10.86840714436762      5.07673449495639      7.22712302647733
  C   11.04517460501705      2.93381057408797      7.27229300501971
  H   10.57421599101507      2.83403480021509      8.24793027047035
  C   11.51342343841507      1.81444524986969      6.57955106818154
  H   11.43871366511899      0.80972713300593      6.98789647468615
  C   12.10210615785199      2.00239069569351      5.33141577121646
  H   12.48293517687611      1.15858360649652      4.77621185388099
  C   13.56419052869468      5.82762839388769      4.53161156646637
  C   14.32439974260000      6.86295606666414      5.09202377549533
  H   13.84704265401898      7.61630560611929      5.70801644767034
  C   15.70257093286646      6.92969764522127      4.86523117828233
  H   16.29151950488372      7.73437676145819      5.30029703288709
  C   16.30226451090124      5.93781986785524      4.08499369077821
  H   17.37182628463092      5.92373309985834      3.89120715270781
  C   15.49790447825673      4.93388064211854      3.55139024639899
  H   15.93189300743259      4.14838789644915      2.95143840137264
  C   11.51648384001968      3.64479996600830      0.31234141204989
  C   10.75028417592246      3.74460249586249     -1.02138222195806
  H   10.92788280398850      4.71114165521088     -1.50475581060649
  H   9.67195698415249      3.64038882080001     -0.86158435171641
  H   11.07186449378770      2.95504989269212     -1.70830981946150
  C   13.03845787994261      3.74061146360304      0.06753203446931
  C   13.58893819908146      3.93495820077987     -1.20481593011058
  H   12.94795870401705      4.17919348027277     -2.04467109718267
  C   14.96543370588404      3.77432741858666     -1.40724404751051
  H   15.39368342446520      3.92582792015311     -2.39582682768452
  C   15.75683260222803      3.34523868307426     -0.33863162315768
  H   16.81108793381784      3.10908152703798     -0.45989169749515
  C   15.16180223942080      3.19960399215663      0.91306943500794
  H   15.70938441883444      2.79540198201048      1.75666396924306
  C   11.29795246303529      2.25857022419091      0.95783196310978
  C   10.47231875917713      1.28284287489694      0.38732339902912
  H   9.83895933265418      1.53121237683337     -0.45705277545212
  C   10.49055661900074     -0.02836785794729      0.87877681513996
  H   9.84891055121517     -0.78710739583764      0.43578475612380
  C   11.39677791423345     -0.35435684921270      1.89089229605339
  H   11.52429692567631     -1.37447206772773      2.24442779795339
  C   12.17071806458842      0.66383799737295      2.44443835509483
  H   12.94243980797274      0.45333431700928      3.17527457446407
  N   11.68788792189837      4.75093072916588      2.50201579075163
  N   12.23450254562132      3.22647029767130      4.76198988046535
  N   14.15804326808668      4.88500741253577      3.75583176361020
  N   13.85288704904723      3.47957523989802      1.12102003141836
  N   12.05376209303100      1.95199333757541      2.04270484688681
  O   14.31922232730323      2.22130052936784      3.40511880731563
  Co  13.07331579756951      3.40622490254582      2.95376283711756
  H   14.63773640054905      2.40536952844416      4.32236651090109
