62
Coordinates from ORCA-job BEXNEZ-OH_3_6_tpss_d4_lanl2dz_631gpol_Co3.opt
  C   11.40622080348422      5.64523466099505      3.41810592593465
  C   10.42884366263355      6.61619707674502      3.10868908915875
  H   10.15516946506900      7.37665704736798      3.82894144668083
  C   9.80543936974948      6.60104350297708      1.86402184882956
  H   9.05066636056308      7.34253147518731      1.61153074124959
  C   10.16803890674896      5.61582700126186      0.94915793791319
  H   9.68888173563246      5.59306841590963     -0.02142721823956
  C   11.15054813306070      4.66130393915691      1.29297586471704
  C   12.09428437907308      5.66471604039069      4.80109003665611
  C   11.53888790032092      6.82393554881583      5.66060997575726
  H   11.72591581847832      7.79236207130210      5.18552427774174
  H   12.01848924921881      6.83602563116726      6.64436351977765
  H   10.46034515242534      6.71833511208522      5.81613193388645
  C   11.83136579532384      4.32088929836150      5.51720451696905
  C   11.20437384586023      4.26057235338519      6.78386378844524
  H   10.87730278743704      5.16485871750172      7.28319032811172
  C   10.99645137054247      3.02769300029114      7.40935118930815
  H   10.51133825402901      2.98104653780485      8.38181588605292
  C   11.43294280396180      1.86759854709330      6.76416438446605
  H   11.31461853329417      0.88296456558320      7.20977260248844
  C   12.05220524354399      1.99924980736365      5.51074964379497
  H   12.43648289481976      1.12738517873437      4.99420466522447
  C   13.61654395251880      5.84990082937552      4.60689589915112
  C   14.32046180106096      6.91648551902145      5.21359155985735
  H   13.80221391951650      7.64211668270918      5.82914861686635
  C   15.69912781176228      7.04931593365455      5.02405215792206
  H   16.23968980427643      7.87173009415442      5.48734439034119
  C   16.36099311754374      6.10193176955055      4.23857587763151
  H   17.43400939562901      6.14490266920054      4.06868356018961
  C   15.60346031816561      5.06332492409547      3.67311474860626
  H   16.08603653738486      4.28811877773290      3.08951407780117
  C   11.54835809677640      3.57334518817399      0.27521765877931
  C   10.73466792306220      3.73030858233205     -1.02965379955619
  H   10.91533897407807      4.70452661069774     -1.49550550861801
  H   9.66039065144031      3.63786509483358     -0.83971180663848
  H   11.01725026250250      2.95605017313756     -1.75008645692585
  C   13.06076642809732      3.66636496806428     -0.04671761814772
  C   13.53718379468550      3.87185086252203     -1.36142580881115
  H   12.84876349679118      4.06211207150298     -2.17660458487679
  C   14.90854775574947      3.81190354747804     -1.62869081287641
  H   15.27705778394595      3.96873881247146     -2.64001503329458
  C   15.78437911449704      3.51409624525503     -0.58052732105325
  H   16.85481819841217      3.40838401949970     -0.73915827858191
  C   15.24826753197805      3.34731752223906      0.70744690609629
  H   15.88282789855134      3.07283464521906      1.54363065882373
  C   11.29995703263578      2.16448114226403      0.86902686846037
  C   10.43175721845591      1.23307719328558      0.25552552115750
  H   9.83606356811121      1.51479708868143     -0.60498938435710
  C   10.34785024138171     -0.07475029371547      0.74321058600676
  H   9.68142842995117     -0.79365065111398      0.27179020986192
  C   11.16057417996949     -0.44341683131244      1.81937206432531
  H   11.17283260919591     -1.45877938775313      2.20809019450583
  C   11.97997402384183      0.53845788470403      2.40156897618839
  H   12.65890811456016      0.28969786175335      3.21047022195572
  N   11.75173109012836      4.68963105231127      2.51350101549565
  N   12.23221721405852      3.18530353024336      4.89358484102291
  N   14.26940438928173      4.94553375582520      3.83466712132740
  N   13.93110083854436      3.46400631876184      0.97498103750832
  N   12.01452729983213      1.81581024481767      1.96888500685519
  O   14.51420850417206      2.10348421073755      3.56215760738586
  Co  13.25756588929730      3.22367478818015      2.98436065401626
  H   15.07458232288574      1.90441101992736      4.34232599067367
