61
Coordinates from ORCA-job BEXNEZ-oxo_3_5_tpss_d4_lanl2dz_631gpol_Co3.opt
  C   11.36321086404807      5.63163988694714      3.38772821202507
  C   10.39304355462168      6.60146603983722      3.07099377856699
  H   10.10514774977388      7.35039145618289      3.79783372403409
  C   9.79243123787324      6.60236565380722      1.81475288015965
  H   9.04167253753284      7.34680431748252      1.55856547448107
  C   10.17235804675995      5.62962265525655      0.89369454745274
  H   9.71241616893893      5.61768176229013     -0.08633235343226
  C   11.14745454952526      4.67463986992553      1.23856606621131
  C   12.03225971393601      5.64059766243456      4.77392273406463
  C   11.42618758174838      6.74872228906372      5.66403832438532
  H   11.58640524224735      7.73838457380701      5.22424607283190
  H   11.89527453700613      6.74519197729817      6.65274889563398
  H   10.35013204712268      6.59885489415427      5.80167061003178
  C   11.87789263253942      4.27120165735708      5.46841476753120
  C   11.30449721842300      4.13636596828703      6.75196895309724
  H   10.85623124007970      4.99058067341473      7.24631143569511
  C   11.32340863747622      2.90098064735029      7.40659247243053
  H   10.87727856582452      2.79686777680352      8.39325335532642
  C   11.96436835996778      1.82431616003685      6.78681941939067
  H   12.06444592396739      0.85693326907862      7.27310332705834
  C   12.49736638740932      2.01433559432173      5.50333665182998
  H   13.05166484722752      1.22695712301353      5.00236359614281
  C   13.55085680835165      5.87876573292902      4.59638392477459
  C   14.23244783943621      6.92156413390626      5.26908221587542
  H   13.69368506541817      7.61326172935582      5.90665855551373
  C   15.61442781335119      7.06622655186629      5.11700278858557
  H   16.14327634909463      7.86647501256300      5.63005770633526
  C   16.29560017996008      6.15658649870906      4.30331966723369
  H   17.37215140209954      6.20911284737541      4.15924827674922
  C   15.55457544236673      5.14215102416404      3.66538151822195
  H   16.05669938772428      4.40342410701305      3.05284493497434
  C   11.55724851181708      3.59430581276692      0.22144192122678
  C   10.80418042887733      3.78857808491515     -1.11333576335228
  H   11.02908095131583      4.76600499081733     -1.55300197267839
  H   9.72136069876874      3.71237098171023     -0.97015275184089
  H   11.09850468232032      3.02007265426203     -1.83478851018967
  C   13.07979074097929      3.62752912806025     -0.02840389801142
  C   13.62922489351373      3.75082801998617     -1.32377387738981
  H   12.98629431819684      3.92577868552596     -2.17872665642493
  C   15.00873899778355      3.63249676679225     -1.51918407396738
  H   15.43151252705231      3.73084126226639     -2.51665577282279
  C   15.81869531513235      3.34299473836892     -0.41735545137256
  H   16.88945894369978      3.18194373143123     -0.51671287741757
  C   15.21715024347019      3.24921046064427      0.84620279902377
  H   15.79228001437978      2.96948670043731      1.72293673052960
  C   11.23302343832430      2.20120717935218      0.81220698372914
  C   10.42066576264419      1.26413390045111      0.12939403913293
  H   9.96636053938925      1.51649660174966     -0.82197014984466
  C   10.19951392406203     -0.00191801131842      0.67943521467344
  H   9.57457349306492     -0.72521192047723      0.16022567062010
  C   10.80704672157440     -0.31589094226754      1.89828530706490
  H   10.68639900144716     -1.29006088870527      2.36614484252120
  C   11.60245658929157      0.66454968487398      2.52296500625889
  H   12.11042737417312      0.44354756436466      3.45350856106695
  N   11.72708201499788      4.68855662722894      2.47284940104830
  N   12.40526341878377      3.18943871219382      4.84249143767158
  N   14.22030110402672      5.01837198840821      3.78917077446512
  N   13.89353187416118      3.44025531110760      1.04053831176570
  N   11.79165352682352      1.89392083924064      2.00914479373036
  O   14.28133019352092      2.22755204157508      3.30914282940916
  Co  13.13708182455512      3.32653974820555      2.93780459816182
