47
Coordinates from ORCA-job CUNBAQ-oxo_0_1_tpss_d4_lanl2dz_631gpol_Mn3.opt
  Mn  4.22139362095141      5.15830182362344      2.74769392565329
  Br  3.87970784675015      7.71614095209798      2.03572809194731
  C   0.84932816127033      5.50127081883645      0.41730867813623
  C   1.60119779135334      5.41445693163302      1.63471780902034
  C   0.99426234551718      5.87255650542543      2.83951883554301
  C   -0.32986870463640      6.36920851804574      2.82527267599119
  H   -0.77612213913142      6.71051706522899      3.75859204383028
  C   -1.03890032102402      6.44391469948402      1.63410786100274
  H   -2.05184162992435      6.84040540737180      1.61925974347582
  C   -0.44911529346871      6.01098358094715      0.42757852565952
  H   -1.01518956205862      6.08728517665126     -0.49750095991067
  O   1.51279481909002      5.05355765945261     -0.68965839728102
  C   0.83400387534896      5.17370426582979     -1.94246320919922
  H   -0.08671091956440      4.57119104496706     -1.95433579159735
  H   1.53431739801844      4.79248966508300     -2.68974848261632
  H   0.59099787025583      6.22412615206199     -2.15991369743369
  O   2.79969584587250      4.89297775028838      1.56922411973928
  C   1.70073630402741      5.80768627693491      4.09066777431118
  H   1.11155522763466      6.02107303717414      4.99055171419123
  N   2.96179602160908      5.54037097162348      4.24614333324599
  C   3.51465644580183      5.48497365432114      5.60342019835190
  H   2.72953839291858      5.68702506805284      6.34507545715961
  H   4.32711896721324      6.21292800349502      5.68330161225378
  H   3.93302699407805      4.48434779637113      5.76504961209875
  C   7.23002349589290      7.44062430773510      4.37015100701071
  C   6.61457442795834      6.57146886662345      3.41142383604623
  C   7.18085457948678      6.49181366047172      2.10713019576652
  C   8.34289028603927      7.23189278942374      1.78990473153269
  H   8.76244204904822      7.15304913669277      0.78763480280177
  C   8.92370907784904      8.06691822974413      2.73553354519712
  H   9.80861710638683      8.64905319195276      2.48747071218131
  C   8.36653576353741      8.17396124566926      4.02682400206874
  H   8.82737816942052      8.84179098543079      4.75041095953517
  O   6.61316385022547      7.46602405294901      5.58852830479977
  C   7.15282498029890      8.35705467964549      6.56828690685119
  H   8.18775736823324      8.08488031230605      6.82440043894148
  H   6.51287773120476      8.24413672223420      7.44685694247600
  H   7.12107823057755      9.39808377409446      6.21467947827296
  O   5.57517127919620      5.87856251901311      3.80454543093811
  C   6.59855833446492      5.64361394410823      1.10040599237072
  H   7.18059241464855      5.51536451052196      0.17994414812770
  N   5.45018441598841      5.04431435572378      1.17569931569555
  C   5.01453113182079      4.19666553962794      0.06119488507334
  H   5.77629409485003      4.18325039812985     -0.73045870454252
  H   4.06104608810974      4.57648531208731     -0.31744835601152
  H   4.85205654258121      3.18150760620400      0.44212851751374
  O   4.43125922427763      3.62279103460979      3.15136143377997
