46
Coordinates from ORCA-job CUNBAQ_0_5_tpss_d4_lanl2dz_631gpol_Mn3.opt
  Mn  4.02930289713454      6.59818301640039      2.35108383167777
  Br  3.71773175822105      9.08514584577004      1.68552550981852
  C   0.72028688658253      4.83793914201126      0.51135015504249
  C   1.46635045086919      5.46660557545637      1.55707073822992
  C   0.77081037242396      5.90254002504295      2.71814836340724
  C   -0.63263428364080      5.70832105534502      2.82599504307838
  H   -1.14383653690864      6.05189704769187      3.72475684223581
  C   -1.33555286513043      5.10172399014503      1.79945135559318
  H   -2.41137617295506      4.95816938516818      1.87356249499401
  C   -0.65718703144500      4.66474577916675      0.63834887585173
  H   -1.22470545555986      4.19368957064497     -0.16082102910034
  O   1.47410669232186      4.44991710542988     -0.56529862107494
  C   0.77431057470146      3.83677623448448     -1.64975194162813
  H   0.28203141919356      2.90555959853360     -1.33011941423209
  H   1.53761060999688      3.61216218940603     -2.39924429786747
  H   0.02438032730204      4.52050257090921     -2.07569284864292
  O   2.76823709672813      5.58763583357124      1.40270509036484
  C   1.46594745247523      6.53098959354076      3.80646446117828
  H   0.85032063623964      6.79303052915383      4.67567214685553
  N   2.73389233086852      6.83298074004256      3.86162773379941
  C   3.24521144915569      7.52565649115011      5.05526072535749
  H   2.45694596178071      7.60504550777527      5.81674561999702
  H   3.57374046205995      8.52596943913644      4.74770638113550
  H   4.11194863463729      6.98264558837523      5.44239350196238
  C   7.53040345504980      6.85348806581454      4.60417179258899
  C   6.72764139845219      6.66988155714692      3.43492780132998
  C   7.37246885660852      6.64019000631036      2.16793691140103
  C   8.78294333593119      6.78613536461591      2.08000770250282
  H   9.25473596409584      6.76166657179564      1.09817449214667
  C   9.53979328595790      6.96819687469106      3.22457399342941
  H   10.61904993750650      7.08972816278379      3.16170180189144
  C   8.91201318343301      7.00167820729707      4.49105419049911
  H   9.52057945467313      7.14997576889648      5.38008550189154
  O   6.82302208903012      6.86782436539702      5.77778762940783
  C   7.57323933601780      7.07246980090049      6.97644631634355
  H   8.30855787988122      6.26759397241554      7.12842330629248
  H   6.83857500290145      7.05848275055744      7.78571273655611
  H   8.09044611233772      8.04383091406606      6.96050349075893
  O   5.42991035164008      6.51089164353234      3.59271305246679
  C   6.62187081852337      6.44811893761122      0.95850150989414
  H   7.21247421696204      6.38913984181146      0.03615662114419
  N   5.32580613793054      6.35495201206227      0.84327852698379
  C   4.74276122799086      6.21069285565580     -0.50006022704361
  H   5.53802327392091      6.10667910420967     -1.25125070060267
  H   4.14664287252195      7.10816908972812     -0.70560245103377
  H   4.07536814158117      5.34438227834899     -0.51278471688256
