46
Coordinates from ORCA-job BIRJUJ-CH3OH_0_4_tpss_d4_lanl2dz_631gpol_Mn2.opt
  Mn  1.44641039577401      5.54065014996098     18.93600973301703
  Cl  -0.66764070816588      5.91059267408805     18.06102352177032
  Cl  1.44320155470815      3.17544272724667     19.20505282838914
  O   1.25147054497371      8.23671217839585     18.82137997678922
  N   2.48705261482933      5.52511760880820     17.22829192279876
  N   4.48682820674600      5.51250575646860     16.21926475246494
  N   3.18900410085756      5.95661493671558     19.58718307215764
  N   1.02632177185762      5.93458437450429     20.85856207706058
  N   1.78957028209566      6.34207087817366     22.92120368914749
  C   2.28764213324255      5.19578357736069     15.89276089084432
  C   1.11424107213531      4.89582350032839     15.18801798340836
  C   1.24713722482893      4.60195305607520     13.82924789612896
  C   2.50492687646430      4.60389113611940     13.18581076199431
  C   3.68349412958575      4.89735308449311     13.87941068580257
  C   3.54905752382066      5.18762715023821     15.23987427789085
  C   3.81702699670158      5.69055589269434     17.40201753639920
  C   4.27319705621197      5.98114228302025     18.72459300691370
  C   5.55674344227750      6.27071608876354     19.18896581738726
  C   5.75226066652031      6.55855411411899     20.54899937119800
  C   4.64580620289133      6.56121938587184     21.42011630572541
  C   3.38033069290053      6.26534377253586     20.92198658401035
  C   2.11862928484730      6.20954597772322     21.59870748876626
  C   0.41931104572382      6.11933852752221     23.04624418493290
  C   -0.42968161496847      6.12070380854124     24.15667313574255
  C   -1.77638072331316      5.83726107090726     23.90963879738022
  C   -2.25005785444367      5.56300158938174     22.60633330048931
  C   -1.40147680652009      5.56601104041320     21.49797588775760
  C   -0.05025418313454      5.85572360068099     21.73175606416337
  H   0.15602420961186      4.89019363667311     15.69897692251973
  H   5.49308321328406      5.51849081449418     16.10432311204468
  H   0.35831682097882      4.35901446847854     13.25039385370116
  H   2.56125428352425      4.36657763620641     12.12511246030043
  H   4.65274437735567      4.89169391012113     13.38487513860868
  H   2.44073490034687      6.50798873707198     23.67901709685755
  H   6.39662172432952      6.28049401206296     18.49652985165496
  H   6.74593500055826      6.78674532979499     20.92443597635618
  H   4.77530478168184      6.79811038325215     22.47448444184350
  H   -0.06412651069180      6.32397189501116     25.16117197874966
  H   -2.47481123069152      5.82259465404543     24.74424416389719
  H   -3.30537849933603      5.33828431643275     22.46524775232672
  H   -1.74774450837222      5.34944080007841     20.49175004355281
  C   1.64856723083472      8.71401792490010     17.52701626291999
  H   1.19373861474651      9.69205325187696     17.30455256334531
  H   2.73750377332130      8.82897527709085     17.55890294182295
  H   1.38392739411035      7.99871959559996     16.73470247509439
  H   0.30464249495929      7.97666341565681     18.74597141387180
