41
Coordinates from ORCA-job BIRJUJ-oxo_0_4_tpss_d4_lanl2dz_631gpol_Mn2.opt
  Mn  1.29458480132872      5.87151774321664     18.74972358664779
  Cl  -0.72469373196370      5.12754310920874     18.05621066171537
  Cl  2.02569824887147      3.60781932747567     19.35113706263244
  O   1.00064976615418      7.48458132233662     18.40706982610197
  N   2.38080559511169      5.62945983076072     17.07638069541260
  N   4.37622535254871      5.66924261434619     16.07002184809573
  N   3.12397590064663      6.27979018073499     19.41417201771487
  N   0.94442772802308      6.13994316406477     20.70791512285581
  N   1.73517629475004      6.61376917608895     22.74389629504305
  C   2.19504996593419      5.25872868784392     15.75814906395297
  C   1.02923177308655      4.90256661915786     15.06147990568011
  C   1.17573257659036      4.57314506958956     13.71640250865095
  C   2.43791318982140      4.59337639347198     13.07262187100795
  C   3.60533372045651      4.94472475516181     13.75163214902647
  C   3.45834730315412      5.27595047077534     15.10339553430352
  C   3.68725654037247      5.86836731513691     17.23670102891430
  C   4.16215805351985      6.24452301740314     18.55011003490731
  C   5.46612191391017      6.51377904489014     18.98931476315095
  C   5.66219329873065      6.81126188710030     20.34382349464062
  C   4.57917888787016      6.82784709203967     21.23169230096755
  C   3.30151730662093      6.54960635809156     20.72626439561514
  C   2.03395605070691      6.45607094856614     21.41676559135366
  C   0.37311096923317      6.38290961220418     22.89721561766068
  C   -0.46068549118440      6.40683082356644     24.02095208761060
  C   -1.80820258654916      6.12274382268291     23.79479534484159
  C   -2.30303718158575      5.82683491897071     22.50035101995617
  C   -1.47353920066195      5.80256973361298     21.38212411986941
  C   -0.11492386162300      6.08657047479820     21.59386293416898
  H   0.07307070303075      4.88726850566757     15.57621018807399
  H   5.37778015421178      5.75634924309536     15.94575185053924
  H   0.29723977465836      4.28891215811478     13.14080554896523
  H   2.50023899196066      4.32570849293256     12.01947005479662
  H   4.57380597462331      4.95733377511258     13.25604844379704
  H   2.39460257077924      6.82406534801285     23.48350715071751
  H   6.30589295235781      6.48716961589337     18.29925897414082
  H   6.66395863865052      7.02290837773617     20.71042170515818
  H   4.72888895467684      7.04516102719671     22.28646686858404
  H   -0.08234629019424      6.63208114438610     25.01579880828365
  H   -2.49713106357935      6.12751338873781     24.63739991232631
  H   -3.36249702187191      5.61027353142681     22.37999168535989
  H   -1.83026752317787      5.57158187839002     20.38268792675817
