52
Coordinates from ORCA-job CILZIJ-CH3OH_1_2_tpss_d4_lanl2dz_631gpol_Co2.opt
  C   11.35148198215552      4.10698329284124     16.55710954240508
  H   11.91869318521339      3.24796900940952     16.91036079836367
  C   11.74972199066476      5.38043146347773     16.87583059587871
  H   12.63692866269525      5.54216235364275     17.48534152514674
  C   11.34943555289894      7.86646231683006     16.72292246854845
  H   12.22572239616550      8.07830397136678     17.33303430665910
  O   5.57198028900342      5.32143626281225     13.37131460196805
  Co  7.38890883999373      6.50972564499109     14.16691817871191
  Cl  6.23365864744177      6.23262005509691     16.15036775070252
  C   5.76185061543653      8.97015098506773     14.54484441472103
  H   5.54197827471884      8.56397107350393     15.52921832970947
  N   8.29305491030145      4.85552127687066     14.55635942369349
  N   6.55040220482593      8.20766976701957     13.76844973928635
  N   9.07794790751855      7.33337269231187     15.14946116912387
  N   8.11799936355855      6.67250695493087     12.36082515934561
  C   7.71417209253989      7.82843184156378     11.74509225061952
  C   8.10034100637247      8.20061939813763     10.43311702505935
  C   8.92984767080746      5.85177747422265     11.67614994000481
  H   9.23657501282891      4.94270440224394     12.18432292218516
  C   9.43170533310264      4.98830328894767     15.30296399739843
  C   7.60528302849560      9.44467289945930      9.90828908884229
  H   7.89612150624890      9.73582970462139      8.90071047624900
  C   6.38704357122893      9.89307142733936     11.98681089685588
  C   6.78521652209393     10.25615283477993     10.65335835941275
  H   6.42251302071752     11.19557157031843     10.24048869955999
  C   8.95292235997863      7.30902685205819      9.73711114771091
  H   9.27941981114837      7.54356609967754      8.72585491658969
  C   6.86132630440144      8.66677754717327     12.51432693382338
  C   7.85571466639977      3.62606078868874     14.24681907871039
  H   6.93235918952778      3.58864969001945     13.67518525077745
  C   9.85000621635091      6.31839682391950     15.62739447235590
  C   10.17644671903671      3.87113915022149     15.76334219484924
  C   9.36210404470741      6.13931356285847     10.36628185176293
  H   10.01640541764654      5.43308032042914      9.86159177751246
  C   5.55194056440472     10.67235853454729     12.82476277360190
  H   5.15777386375985     11.62247942728937     12.46890668369037
  C   10.55370749836986      8.89552318504902     16.23829662997139
  H   10.78700413764838      9.93466255903912     16.45672584258127
  C   5.24957801792497     10.20584538956244     14.09804291912991
  H   4.61269643923725     10.77896452687367     14.76698593605592
  C   9.70054326422845      2.58363218988737     15.41488684677119
  H   10.23898578915388      1.69929157307897     15.75078594922058
  C   9.42313616013588      8.58668765943927     15.45222689820849
  H   8.77754939980034      9.37095390827170     15.06245576273669
  C   8.54302826345101      2.46721282657683     14.65734619847014
  H   8.14630411061876      1.49347056826418     14.38229205808653
  C   11.00765747527605      6.52457844786715     16.42290480876226
  C   4.64408814829955      5.88266090059377     12.41989817214160
  H   4.31818194722147      6.88713891056036     12.72206265152367
  H   5.17799932314604      5.94289292364289     11.46720491984701
  H   3.77077822962142      5.22783258322161     12.30746816801274
  H   5.17625905147524      5.36397108938156     14.27787749664338
