47
Coordinates from ORCA-job CILZIJ-oxo_1_2_tpss_d4_lanl2dz_631gpol_Co2.opt
  C   11.10720767151117      3.93581367430000     16.26396643882649
  H   11.66710993442573      3.05976995480779     16.58518520958725
  C   11.60329079718591      5.19606357408944     16.49475806505708
  H   12.55889096616368      5.32363818566696     16.99956618592044
  C   11.29099162091364      7.70480098377134     16.32862695011054
  H   12.23561033323085      7.89869699045799     16.83361861753600
  O   5.70983291533172      5.77422823607020     13.50636242540530
  Co  7.11517361850160      6.53195171929058     14.22165505673015
  Cl  6.26546695173222      6.41025558031964     16.31340213881339
  C   5.51523053950085      9.00639262344579     14.62797144751661
  H   5.28392563877451      8.59331161537160     15.60644865863275
  N   7.91197205535605      4.81770986908509     14.57904201753970
  N   6.34077153945611      8.27810878045946     13.86796319921943
  N   8.84031971151421      7.23288658457625     15.03546712779645
  N   7.89319202393509      6.72047794378716     12.44337972466071
  C   7.49828912905990      7.88054902434691     11.84434586392246
  C   7.88279138563488      8.24648171523491     10.53034950936440
  C   8.67978567554212      5.87770484546544     11.76644059798696
  H   8.95806623169614      4.95783389139816     12.27088051468133
  C   9.12449005230669      4.88881512362416     15.19521101606720
  C   7.39090838165196      9.49011579478431     10.00249416925134
  H   7.68118177798090      9.77800021050382      8.99398584218049
  C   6.16198925875268      9.93751223876578     12.07595079863106
  C   6.56451527838890     10.29917187434232     10.74322663679479
  H   6.19489071484956     11.23317098500172     10.32443066006424
  C   8.72137788666566      7.34135719050951      9.83461377989710
  H   9.04504845179803      7.56975678605694      8.82089809030933
  C   6.64914442726366      8.72243903547444     12.61477094383322
  C   7.33349550008278      3.63189359404810     14.37190214233536
  H   6.34853474520122      3.68599835779526     13.91241084056891
  C   9.63195197094990      6.19827719985922     15.43784994145376
  C   9.83984666233856      3.74088761601600     15.61230022144507
  C   9.11529252717280      6.16331107233685     10.45617477587613
  H   9.75284429485604      5.44622658376517      9.94582536289566
  C   5.30092061937595     10.70206030562146     12.90208451196781
  H   4.89197777046047     11.64267391593400     12.53785014006799
  C   10.47831643789206      8.75341360589148     15.91678356484763
  H   10.76805608402717      9.78661990800622     16.08934842258149
  C   4.98103128473752     10.22992108881868     14.16741699815730
  H   4.31426842564207     10.78630012027885     14.82090956315109
  C   9.22873614358779      2.48525428071842     15.36507388905860
  H   9.73215999709760      1.56930907507173     15.66938725767375
  C   9.25284859493736      8.48016479504658     15.27306363412596
  H   8.58789096416580      9.27861894907215     14.95494060291922
  C   7.98209291843202      2.43781530225585     14.75257779134426
  H   7.48633842396158      1.48838937063087     14.56825401167634
  C   10.87403166595665      6.37044982782510     16.09733464151691
