48
Coordinates from ORCA-job CILZIJ-OH_1_1_tpss_d4_lanl2dz_631gpol_Co2.opt
  C   11.08445803689523      3.91999254758420     16.35017354888705
  H   11.63356353087269      3.03851869876769     16.67517634344638
  C   11.56678489449424      5.17604648722007     16.62962633270901
  H   12.49996145091775      5.29367661624282     17.17693957537253
  C   11.26554280850627      7.69007984324741     16.48444210044563
  H   12.18832363751692      7.87829704091794     17.02996134985303
  O   5.73652360819020      5.78891298889200     13.39570312031399
  Co  7.19449278561062      6.57005817278715     14.22904657621718
  Cl  6.24623968031936      6.39118663978675     16.27365207031463
  C   5.65798600480375      9.08051322475781     14.67764534261118
  H   5.49761404255811      8.70803426883303     15.68620017086192
  N   7.96659907253892      4.84360978575431     14.54779291938382
  N   6.42168614081206      8.31488894673594     13.88781945778393
  N   8.86770254919013      7.23633574343335     15.08537317997138
  N   7.93671946192576      6.74423391659592     12.44414654720511
  C   7.46929650240079      7.86125845651670     11.81785629338791
  C   7.76801494642830      8.18168253605721     10.47061679381194
  C   8.71473524369160      5.90045459499970     11.75952002513522
  H   9.05609356982339      5.01492819880161     12.28567942364153
  C   9.14797531478434      4.89398741837691     15.22266153948718
  C   7.21511755654541      9.39070848250227      9.92260130636929
  H   7.43655444302108      9.64098590091767      8.88703032516894
  C   6.11363848212455      9.90576699845677     12.05035666132921
  C   6.42265020347059     10.21726023678811     10.68054323876969
  H   6.01207422768920     11.12835320944368     10.24982965938441
  C   8.59482195180966      7.27325456371847      9.76564482908680
  H   8.85218495201095      7.46649564690774      8.72603100042610
  C   6.64556920235713      8.71516972369291     12.60166893577225
  C   7.41181004707462      3.66326051281629     14.25977546476341
  H   6.45929927251409      3.73391996695526     13.73719748296987
  C   9.64263442258238      6.19688632534541     15.51136494509088
  C   9.84869304305776      3.73696216596025     15.63667625020494
  C   9.06492992008269      6.13907689045474     10.41461293464189
  H   9.69835648467629      5.42115556959957      9.90035671827204
  C   5.30974297195820     10.70151005569029     12.90367822189488
  H   4.87020777452940     11.62496846666334     12.53124051724128
  C   10.47284380521998      8.74342473020496     16.04596072889286
  H   10.75791819615471      9.77464919148309     16.23717690038414
  C   5.09047599298401     10.28532996936291     14.20985320419434
  H   4.47625714545826     10.87090874985901     14.88882712622972
  C   9.25691446057706      2.48855151211830     15.31646718319980
  H   9.74768692793276      1.56396158066309     15.61494940358133
  C   9.27476324043010      8.48127084282948     15.34856471351300
  H   8.62815842840170      9.28470387426698     15.00747550117365
  C   8.04684633937554      2.45916462010376     14.63238339433297
  H   7.56994041425691      1.51466515232450     14.38395195815250
  C   10.85627128041974      6.35916567701123     16.22226402014497
  H   5.05414553100435      5.78518325755111     14.10351466397361
