41
Coordinates from ORCA-job BAFHUN_2_1_tpss_d4_lanl2dz_631gpol_Fe2.opt
  Fe  3.44815566565022      1.43010241982281      8.88356784579109
  O   3.92758258108095     -0.97128701057553      7.37653598370860
  C   3.73812362629842      0.00493583062690      7.98277286392036
  N   1.43055972489645      1.18978150879243      8.92711371248370
  H   1.23488062671763      0.22589823120159      8.62901702824999
  N   3.75960100835016      0.54283371662336     10.68449394115399
  H   3.74168738352397     -0.47289959714410     10.52851336219652
  N   5.38533257086270      1.93768413054247      8.98298460778258
  H   5.41161234790713      2.87620859613331      9.41630611413576
  N   3.11178250664684      2.57444338909801      7.27318263310300
  H   3.03097339057558      3.54162083660584      7.63057081071979
  C   0.75274341562742      1.36495218332126     10.26288682811158
  H   -0.32191172758715      1.18302973278127     10.12637294237098
  H   0.87832132797726      2.41660835716113     10.55451668318643
  C   1.32593966774748      0.43814881163393     11.33316084029011
  H   1.28155970967667     -0.61378021216540     11.01019152027551
  H   0.67868655229021      0.50939059479919     12.21710986963167
  C   2.74159165438999      0.81987133137497     11.76178324018578
  H   2.79952515174497      1.89154537249342     11.99646249360912
  H   3.03800637735615      0.26489486964187     12.66221335928959
  C   5.14726244945060      0.89263810739873     11.16341099569468
  H   5.50747842785068      0.14730160594702     11.88276529133322
  H   5.07923861787577      1.85870491014160     11.68123244716302
  C   6.05520075453725      0.99985786580186      9.95142329273297
  H   7.05093928724278      1.37093685618711     10.22617106901544
  H   6.17233295693552      0.03449373835570      9.44449395158789
  C   6.15975509592589      2.04773259159814      7.69529557704374
  H   6.19722688765814      1.04332966152958      7.25709103398974
  H   7.18648701261767      2.35292508809274      7.93726970787208
  C   5.52355201513847      3.04765539996991      6.73059060154808
  H   5.45994148951871      4.04609712647660      7.19336161553724
  H   6.19991321769251      3.16058212119973      5.87316726514460
  C   4.16051200189962      2.61548566668925      6.19169930826942
  H   3.82191873071444      3.31121847666003      5.41248494481208
  H   4.20870982919960      1.61132442033277      5.75404199780737
  C   1.76173084097888      2.20719314813390      6.71867271959621
  H   1.87176990165911      1.24764952634261      6.19945261341891
  H   1.42224099693638      2.95814895937197      5.99366290473562
  C   0.81180352418282      2.10499043867028      7.89830442397399
  H   0.67884301952450      3.08607883570649      8.37353366951928
  H   -0.17731061927251      1.73747236262521      7.59951788900804
