43
Coordinates from ORCA-job BAFHUN-OH_2_6_tpss_d4_lanl2dz_631gpol_Fe2.opt
  Fe  3.40193033313632      1.90810362805270      9.15197223238285
  O   3.77845086081343     -1.25096544123784      7.38159649136582
  C   3.80603811314220     -0.18843076354851      7.79707028846688
  N   1.37268845638773      1.20852596357344      8.94653271503124
  H   1.29093532012551      0.25563929831821      8.56987694517579
  N   3.78398214478341      0.51595995107792     10.75337177791831
  H   3.81019426793412     -0.46789243690987     10.45665678043325
  N   5.55048898662641      2.02071825930435      9.05113835730969
  H   5.72106701119459      2.94883617027988      9.46083506277471
  N   3.06546554260721      2.73538430115335      7.19053310937996
  H   2.98079847464925      3.73583524229718      7.41471208264050
  C   0.68490520781315      1.22366653473464     10.28501921643880
  H   -0.37231120056796      0.96070745066699     10.14124918357298
  H   0.74094978533761      2.25284191513780     10.65700955650739
  C   1.33198325217224      0.24493640790143     11.27814796432501
  H   1.35891417645318     -0.77170899584095     10.85246292074506
  H   0.66289077152716      0.18085548632375     12.14647015750609
  C   2.71933721929908      0.63994296342006     11.80931444644771
  H   2.72651776251686      1.68344569002727     12.14359379339346
  H   2.98784223272399     -0.00240357900636     12.65946697052283
  C   5.16049973927805      0.89473963687871     11.21927001102876
  H   5.54359955795151      0.16256219847601     11.94228548412863
  H   5.07385113086285      1.86523783234837     11.72324735459651
  C   6.08923151996758      0.99373472176051     10.00444329300045
  H   7.11120278492790      1.24710034731596     10.31575736352617
  H   6.13072466641105      0.03694408287653      9.46681232338442
  C   6.18925728935405      2.00071949650625      7.69461322232400
  H   6.11680386015687      0.97355758769954      7.31355223780622
  H   7.25730158362272      2.23599644443569      7.80207580977984
  C   5.53538189803815      2.99063913391321      6.71617968510931
  H   5.49512954906011      3.99800201454939      7.16051735053910
  H   6.20763500287778      3.07704349019564      5.85224673832186
  C   4.15466288944550      2.59053544180791      6.17016129818183
  H   3.90759260715120      3.20964752349171      5.29648658473021
  H   4.15744755742332      1.54344154706428      5.83983040558659
  C   1.71920181307352      2.25398573016994      6.73346559109874
  H   1.86255540010637      1.26930978429845      6.26874715242847
  H   1.30169435769406      2.92559035651993      5.97175919355097
  C   0.78089062113590      2.15457059864012      7.94096249792391
  H   0.67887754390887      3.12793659488756      8.43648827222744
  H   -0.21716358879368      1.81886360444052      7.62982853455943
  O   3.07667011202482      3.37034617378188     10.12096721912724
  H   3.09044338564553      4.28020761221619     10.47847232470034
