43
Coordinates from ORCA-job BAFHUN-OH_2_2_tpss_d4_lanl2dz_631gpol_Fe2.opt
  Fe  3.42399243684034      1.55886507291102      8.94171879836507
  O   3.95681944814627     -0.88765255676294      7.23317712329752
  C   3.76157512045737      0.03425067110974      7.89308896275338
  N   1.42267913188601      1.16439164025923      8.94197229347020
  H   1.25419584555461      0.20915253360976      8.59952861102364
  N   3.74457667111376      0.60122288964527     10.73222606370951
  H   3.75808692337696     -0.40337939685203     10.51435915309495
  N   5.41935897664996      1.90446195635844      8.99200476871786
  H   5.41083822996143      2.85473047999972      9.38800279705309
  N   3.09648329384509      2.60310132632337      7.25058855064596
  H   3.02906470002038      3.55023751609405      7.65467728845667
  C   0.73426180063475      1.28669414721816     10.27283688413908
  H   -0.33045245025659      1.06222915990237     10.12108885808805
  H   0.82813756252672      2.33626823396269     10.57285607569373
  C   1.32339480600124      0.35624440986624     11.33304718393079
  H   1.33043972859720     -0.68789705431605     10.98102608093240
  H   0.65225489182460      0.37449952691873     12.20157164813749
  C   2.71434155082715      0.77098596032450     11.81155291588617
  H   2.72162372797433      1.82309799810719     12.12355812665573
  H   3.01966475178777      0.16812719248131     12.67783140277184
  C   5.12680715801234      0.95701744313249     11.20594070952960
  H   5.47306552385489      0.24100105175492     11.96193271464465
  H   5.07179248603840      1.94672413137060     11.67791887632205
  C   6.04804700197203      0.98788087917729      9.99521673308119
  H   7.05193574564072      1.34132512475542     10.26406933201688
  H   6.14409152349625     -0.00312120601516      9.53375131962008
  C   6.15748279255418      1.97902047657726      7.68658336366281
  H   6.16972064163170      0.97252517418400      7.25058749990637
  H   7.19620039481230      2.26399603256136      7.90339257632165
  C   5.52805031476815      2.99992882888541      6.73323538393445
  H   5.48809488262282      3.99137862789296      7.21069473271492
  H   6.20417554386619      3.10656670742550      5.87492109942447
  C   4.14990719149018      2.61573301450660      6.18541118227273
  H   3.84491674676728      3.33525866429093      5.41312818541627
  H   4.16956325484030      1.62021700841978      5.72428470373832
  C   1.74307545920593      2.22011706815898      6.73757803998726
  H   1.83898547240013      1.25998327823239      6.21450466216385
  H   1.37582722606559      2.96632175626535      6.02075708318763
  C   0.82013079407457      2.12019689843024      7.94150302554553
  H   0.74358911972895      3.08926955053236      8.44705121253250
  H   -0.18474459012589      1.78405760240344      7.65758511361456
  O   3.11250372229886      3.15436350003717      9.70206121229049
  H   3.28200444621461      3.22531667985989     10.66637765124825
