43
Coordinates from ORCA-job BAFHUN-OH_2_4_tpss_d4_lanl2dz_631gpol_Fe2.opt
  Fe  3.39754418216242      1.60306815104491      8.97538804021907
  O   3.83874879315931     -1.02185246574430      7.41053164261677
  C   3.69337872953015     -0.03626797081263      7.97798731073746
  N   1.24832279121542      1.12130927933508      8.88366564144895
  H   1.01536769043541      0.20142556954177      8.49054421890425
  N   3.79747838084514      0.60980675419278     10.76850601987877
  H   3.86036500170965     -0.39342703978833     10.55586793390511
  N   5.57142190391000      1.94315500286730      8.97660992417001
  H   5.58267321825264      2.90517885412763      9.33945088816917
  N   3.09947484012695      2.67686810064739      7.25603779314927
  H   3.06966315152874      3.63720323613510      7.63010454727562
  C   0.65166469350351      1.20666297729434     10.25936061797370
  H   -0.41574486478621      0.95325531367062     10.19864422226241
  H   0.73466685896916      2.25390184261649     10.57212672974122
  C   1.34371598578504      0.27796087445507     11.27281943294347
  H   1.41957916505161     -0.74532246994519     10.87099199229555
  H   0.68010912922273      0.20119946906416     12.14440927654189
  C   2.71075033833781      0.74411477896770     11.80090670071765
  H   2.67269014340597      1.79263966423080     12.12314589583584
  H   2.99631487550411      0.14637236172414     12.67771194592246
  C   5.16540637121055      1.04378832160289     11.22125465110518
  H   5.52964982329552      0.38017870561537     12.01623251179504
  H   5.07278331806988      2.05510347076159     11.63719423327453
  C   6.12328190169475      1.03630044116245     10.02114581121540
  H   7.12722905624244      1.35121490762001     10.33781370725082
  H   6.20576973124403      0.03003911274144      9.58900253531925
  C   6.24326061042148      1.94634139119957      7.64399557097559
  H   6.20064580336396      0.92665974239655      7.23884890323962
  H   7.30307664708701      2.21128999142583      7.76782536566349
  C   5.56878158817480      2.95468359520878      6.69851877059608
  H   5.56009347049313      3.95439428090148      7.16069280095831
  H   6.20634508948725      3.04493334802423      5.80914638605196
  C   4.16199205856382      2.59321659864830      6.19497840803220
  H   3.88111033622239      3.28093005102317      5.38487233199958
  H   4.13790592725046      1.57447883663369      5.78744293906924
  C   1.72867519197278      2.31298866522483      6.75925627129284
  H   1.81897448310409      1.36454543809077      6.21402307477246
  H   1.37046511842948      3.07730157397665      6.05692463809126
  C   0.76218851359336      2.18430504392615      7.94219703150087
  H   0.72952007106529      3.12195354122932      8.50823760672679
  H   -0.24872197624078      1.95446899086161      7.58114701522431
  O   3.09289130887033      3.18320682841324      9.75412270754396
  H   3.11705054851435      3.19513483968720     10.73551595359234
