42
Coordinates from ORCA-job BAFHUN-oxo_2_5_tpss_d4_lanl2dz_631gpol_Fe2.opt
  Fe  3.40469251557271      1.64359795605573      9.01817140923827
  O   3.90336061068905     -1.07484987550515      7.38927844883606
  C   3.74211709623551     -0.09121344327889      7.94464484405110
  N   1.30646150767106      1.20625672469753      8.90720876938115
  H   1.10625056830262      0.27230985486565      8.52720137020433
  N   3.81111394283255      0.50258184321977     10.79288221966219
  H   3.88271143118807     -0.50751047244678     10.61600977200879
  N   5.51844747492756      2.00468771479866      9.00481366993229
  H   5.56035490433061      2.95922255329860      9.38526231071892
  N   3.08748011571485      2.68556672896696      7.17170052225596
  H   3.05842056769890      3.66152660894970      7.49481808540379
  C   0.68684601617658      1.28427589953896     10.27688416616984
  H   -0.38481639221278      1.06142172285207     10.18090782221815
  H   0.80066974423242      2.31981600920451     10.61591403674652
  C   1.33409905624211      0.30814542416494     11.27313999057547
  H   1.35872548803709     -0.71262840449156     10.85726030762908
  H   0.66477047083124      0.25383127104207     12.14201465833247
  C   2.71874958691200      0.71065474925384     11.80711016940896
  H   2.73726355625266      1.77197065620782     12.07871901047123
  H   2.96071683279053      0.11551496506938     12.69856071942425
  C   5.15880206296465      0.99864666319478     11.23111058265039
  H   5.57678711633844      0.34158426501144     12.00469008151452
  H   5.00761521832846      1.99543730873569     11.66208603797457
  C   6.09887978151390      1.07069456197265     10.02137718132534
  H   7.09562447010044      1.41045133718645     10.33305749591140
  H   6.20999187274894      0.08650901706604      9.54662735057074
  C   6.19900562606836      1.99994739879043      7.66891527431193
  H   6.17984917626288      0.96982467102948      7.28893068941496
  H   7.25252494275900      2.27929679237928      7.81165944378745
  C   5.54270834158537      2.97056402818943      6.67357486999966
  H   5.49981010481943      3.98311946049044      7.10492936898988
  H   6.21578998049289      3.04519485510728      5.80922940733152
  C   4.16141592714389      2.56738322070998      6.13244818029882
  H   3.89883744598624      3.21226089790939      5.28184374542721
  H   4.16423394745548      1.53006246194123      5.77220749603564
  C   1.71254485958002      2.30222573592310      6.71936785330120
  H   1.78427706365726      1.32784379736763      6.21761443111399
  H   1.32866530614589      3.03053080945327      5.99254075466198
  C   0.78573763598895      2.22947414226987      7.93936607053800
  H   0.76966609392230      3.18947572799132      8.46895787350952
  H   -0.23794718823599      1.98058735443443      7.63115412190546
  O   3.13164511994772      3.00420700638251      9.87550938675657
