56
Coordinates from ORCA-job AKEMUY-CH3OH_1_5_tpss_d4_lanl2dz_631gpol_Fe2.opt
  Se  6.28897015192986     -4.36523574198295     -4.74111036643591
  Fe  9.75902421258219     -7.43985265136106     -3.45382803021437
  N   11.12898980006773     -7.65535246808105     -5.16227928297802
  N   8.87585146066413     -9.03465010782453     -4.62726188895748
  N   8.80500737722582     -5.85019819176610     -4.12829710524572
  C   12.19028803871050     -6.88737525229957     -5.46146129588443
  C   12.90351535054483     -7.02176968275874     -6.65997321367664
  C   12.50166460705540     -7.99689010107119     -7.57945963407382
  C   11.39388692848978     -8.79725215114182     -7.27618957719451
  C   10.72342720577879     -8.59111311995001     -6.06369197642582
  C   9.52383415669304     -9.35233087317872     -5.69679396687104
  C   7.62762126696791     -9.72401104990349     -4.23951572502840
  C   6.46929100754059     -8.72673898834681     -4.44474232062128
  C   7.37173876296951    -11.06202529253060     -4.94253391117397
  C   7.79981372005385     -5.24236414150568     -4.39323358950556
  H   12.46528271633104     -6.15527710912462     -4.70581167211212
  H   13.75518184142377     -6.37612497093845     -6.85846799618958
  H   13.03645066678134     -8.12940384123218     -8.51726630722653
  H   11.04484658926667     -9.56082021527217     -7.96834239824535
  H   9.20981245505965    -10.16138973485407     -6.36290291830750
  H   7.73843290548731     -9.90132886190180     -3.15950500025635
  H   6.67139706353501     -7.77751042524521     -3.93839664901528
  H   6.32837240543566     -8.51936598700829     -5.51294197909746
  H   5.54153347811894     -9.15284226275911     -4.04350198579162
  H   6.49120826647236    -11.53731125970097     -4.49377099860722
  H   7.16056648308488    -10.92986389503280     -6.01258763846950
  H   8.22147533075168    -11.74973765722656     -4.83028753494191
  N   8.50908004175435     -7.57671753239260     -1.68735591269376
  C   7.43390531545977     -6.82125442696983     -1.38143464812173
  C   6.67478534324439     -7.02424534067365     -0.22415437129442
  C   7.03618993007886     -8.05087238033671      0.65920453977643
  C   8.14912312382410     -8.83852586064432      0.35293021341273
  C   8.86508897479501     -8.57388875464520     -0.82396392117385
  C   10.03885747150355     -9.34437429936727     -1.21561868904845
  N   10.68010436075189     -9.00846703069921     -2.29049628822631
  O   11.17649521932006     -5.86416502758473     -2.66795545231996
  C   11.88688232491193     -9.74973189680916     -2.72078331584184
  C   13.10792433191450     -8.85054982541512     -2.44606887024030
  H   12.95584468492133     -7.84796601493325     -2.86111711377227
  H   13.27546450725843     -8.76041784120953     -1.36429532475295
  H   14.00508552687051     -9.28982859629020     -2.89940975527706
  C   12.05112830514589    -11.14840321550016     -2.11428181908244
  H   12.89688393370921    -11.64969054065405     -2.60042716214839
  H   12.27073157460369    -11.11072830023454     -1.03848877840583
  H   11.15534272939673    -11.76447229286874     -2.27224866059766
  H   11.77444538724228     -9.84826658362048     -3.80937741582248
  H   10.33580354128877    -10.18925392074520     -0.58838050709282
  H   8.46712445357173     -9.64587323371322      1.00982183054244
  H   6.46321217834800     -8.23186994361444      1.56573336063903
  H   5.81672846337232     -6.38638191759922     -0.02785146909905
  H   7.18313385502262     -6.04050745348515     -2.09537931801290
  C   11.32222380631569     -5.62648121257683     -1.24450702098395
  H   10.34309362330435     -5.49728917963174     -0.76745592790329
  H   11.81643090180988     -6.51313275062319     -0.84166697297583
  H   11.94836405832771     -4.74266703675826     -1.07540795041876
  H   10.64426778290886     -5.13405155640447     -3.05886831651652
