51
Coordinates from ORCA-job AKEMUY-oxo_1_1_tpss_d4_lanl2dz_631gpol_Fe2.opt
  Se  6.71609087510456     -4.27308733094104     -5.00261689449337
  Fe  9.96662675886884     -7.38103666640709     -3.36568349114644
  N   11.11246529968690     -7.48162958253536     -4.95211972110010
  N   9.01625584611784     -8.94639998690541     -4.40378171324616
  N   8.89833466601671     -6.20325852124262     -4.35331643319931
  C   12.12551483339032     -6.63272450989661     -5.19240868587558
  C   12.82169934636910     -6.65277684245723     -6.40711986976208
  C   12.45168029627470     -7.57120852708800     -7.39581838285507
  C   11.38532579175797     -8.44347313000802     -7.14662355612346
  C   10.72597902487206     -8.36665063434300     -5.91498200681938
  C   9.57570829974146     -9.18151799528078     -5.54450113859304
  C   7.81285068845200     -9.68323250744767     -3.96139289188175
  C   6.57981420062268     -8.80077343595889     -4.24212458736764
  C   7.67431466618203    -11.08526649434035     -4.57081035407791
  C   8.03040028147771     -5.42513539977835     -4.61466901487190
  H   12.34385570062154     -5.93818462511083     -4.38505844468696
  H   13.63409236761916     -5.94888370400637     -6.56705520797233
  H   12.97522008870329     -7.60147898884312     -8.34837880490455
  H   11.05528052042297     -9.16206601894102     -7.89321197296347
  H   9.21661225640652     -9.94570019332692     -6.23720250260869
  H   7.93028464939490     -9.78165767407983     -2.87352142325728
  H   6.69340676405436     -7.80517789726538     -3.80371449054792
  H   6.43764347471399     -8.68191446613996     -5.32348814387853
  H   5.68780939106106     -9.27997228864407     -3.82026752258167
  H   6.85058661327322    -11.60923688190391     -4.07164137330919
  H   7.43228442566934    -11.04778280680668     -5.64127966485954
  H   8.58945742967527    -11.67731915222986     -4.43280931073373
  N   8.73290508656371     -7.36681431338517     -1.82453851875291
  C   7.74831049314031     -6.48635778976072     -1.57534227720409
  C   6.97338036032133     -6.56210957283062     -0.40957008019221
  C   7.22651554840082     -7.57065989940924      0.52485435414811
  C   8.26678763333321     -8.47453894592770      0.27669925737603
  C   9.00675861360836     -8.33779595281922     -0.90198667866012
  C   10.14294342924141     -9.17289663048286     -1.25861986190537
  N   10.76477063332085     -8.89336086452240     -2.35810737271663
  O   10.98593410194097     -6.29634399073127     -2.63986216666476
  C   11.98640985705233     -9.61513680798830     -2.78148448849919
  C   13.20344789537110     -8.75198117590588     -2.39119352451334
  H   13.07171400101594     -7.71616199735941     -2.71917091442915
  H   13.32946825246243     -8.75137243793701     -1.30089307255816
  H   14.10772881452451     -9.16994319153849     -2.85005070311745
  C   12.08395309559752    -11.04546612388727     -2.23606142818736
  H   12.93359737334599    -11.54604719139857     -2.71542716829421
  H   12.26659847969477    -11.06448346963220     -1.15337673273499
  H   11.17722196653850    -11.62517973367594     -2.45628402205331
  H   11.91967969628431     -9.65716681644345     -3.87540190674537
  H   10.45258203966631     -9.98619666935467     -0.60060615941873
  H   8.51321257703565     -9.26455782798587      0.98226378940961
  H   6.63519504070811     -7.64816951602437      1.43412369746737
  H   6.18625322879665     -5.82980750684620     -0.25157205430216
  H   7.58253722548294     -5.71550531222354     -2.32089436373403
