63
Coordinates from ORCA-job BAFKOL-CH3OH_1_1_tpss_d4_lanl2dz_631gpol_Mn3.opt
  Mn  4.97793090016815      5.96887058178424      1.39698231544930
  O   5.04679908895185      5.10259350347464     -0.25123639456844
  O   5.86913255189218      7.46963708653110      0.73257677928675
  O   3.26785048577313      6.85892882934939      0.95953550157751
  O   6.76484549612030      5.11102826141719      1.89928720242104
  N   4.13506994291899      4.45159158818032      2.26670928966645
  N   4.79583046084720      6.77495678014190      3.15266957096582
  N   2.52554203257012      8.43519458852539     -0.51681974010072
  C   3.54051852201465      4.78688002742552      3.58044275042327
  H   2.60858684077397      5.33252749358508      3.36156239681372
  C   4.52496203596299      5.79209586943289      4.21868383402762
  H   5.47465043440958      5.26072628426261      4.39487371739824
  C   3.99402599095108      6.33156850821489      5.55125022607639
  H   3.07188822662707      6.90793614926289      5.37400556018821
  H   4.72826401997468      7.00941519506327      6.00870184516713
  C   3.69831378497334      5.15619779452353      6.50515408665204
  H   4.64102336300792      4.64271141093396      6.75168184767379
  H   3.29268614181500      5.54426849850904      7.44837345168707
  C   2.71548061844402      4.15605410474777      5.87389486505525
  H   1.74364098798305      4.64796191103356      5.71193062235935
  H   2.53690287987482      3.31531479647986      6.55656096725515
  C   3.24071847936049      3.61776007528128      4.52700178534418
  H   4.16031472382726      3.03303167546083      4.69071681955612
  H   2.49344789573782      2.94520439711506      4.08347228358493
  C   4.11292513039541      3.22738956645984      1.79122668470489
  H   3.67565423314956      2.43401669739486      2.40235325027885
  C   4.60962674424123      2.83876286510256      0.50314255334114
  C   4.60331670772569      1.45769900218768      0.16249121646316
  H   4.26407419972306      0.74028753883780      0.90992046835283
  C   5.01229130468895      1.02318754391966     -1.08751620467775
  H   5.00650657876156     -0.03631803125824     -1.33142574638106
  C   5.42718572826334      1.97356569495187     -2.04976531182802
  H   5.74532714784550      1.63771038893706     -3.03528677716949
  C   5.43196778261102      3.33143640444726     -1.75801388076531
  H   5.74249447742188      4.06948149005806     -2.49458230001293
  C   5.03280184737437      3.79927892387044     -0.47975216397367
  C   4.77377667375427      8.06509034145344      3.36449495006834
  H   4.53902118478653      8.43037509467376      4.36767375994183
  C   5.05702058649761      9.05974656743824      2.36939142277950
  C   4.83893582743626     10.42568844209303      2.68797595544607
  H   4.43285312837338     10.67305474240468      3.66905329041337
  C   5.12666277962474     11.43220419306159      1.77748888806598
  H   4.94626718774157     12.47388359383170      2.03221102764046
  C   5.68214991698016     11.09117130605311      0.52255645417893
  H   5.92427097514741     11.87776376179201     -0.19056669649281
  C   5.93573885475661      9.76545210957112      0.18951263556854
  H   6.37772159630165      9.49467314381547     -0.76711104560839
  C   5.61795606553152      8.71927101273606      1.09251266130518
  C   3.20921433717204      7.33323178599523     -0.22008256693398
  H   3.73991121740041      6.84131716437649     -1.04223544407291
  C   1.86509967204627      9.22680019547856      0.52987788122181
  H   2.31973365729346     10.22444893187028      0.56211268494706
  H   2.00897534398369      8.72084355271535      1.48538987422707
  H   0.79602858030868      9.31517895021200      0.30225138095446
  C   2.48467607581186      8.95519309155222     -1.88767404041212
  H   2.95414692841761      9.94639755537468     -1.91305432338759
  H   1.44412000369493      9.03613586245547     -2.22432696794999
  H   3.02966419705141      8.27672110414073     -2.55053370617990
  C   7.88729916871956      5.31142837306517      0.97742825291107
  H   8.00239704723363      6.39164206447150      0.89890586176907
  H   8.77548398733430      4.84747017667400      1.41805460557374
  H   7.65093785401750      4.88337249146816     -0.00151733080044
  H   6.59995936540126      4.14727089558022      1.98037716253266
