63
Coordinates from ORCA-job BAFKOL-CH3OH_1_5_tpss_d4_lanl2dz_631gpol_Mn3.opt
  Mn  4.90234236033744      5.94251683083931      1.31206567612784
  O   4.98482628135666      5.01168525725786     -0.31279106363715
  O   5.71141731216640      7.48087116339511      0.62060564899167
  O   2.92453209272748      6.87994375628115      0.89102389655221
  O   6.93252487461564      4.92360975805967      1.89310978410677
  N   4.08650793877520      4.38574163616842      2.24202842376284
  N   4.78578897812041      6.75221127209355      3.12240363171185
  N   2.37102299728976      8.57130369143473     -0.55839844849443
  C   3.51579112556718      4.75388290326127      3.55817932750703
  H   2.59101789025461      5.31180161709064      3.34159769290138
  C   4.52497956245046      5.74960687351709      4.18000321950289
  H   5.47415029511019      5.21046174819026      4.32712825761029
  C   4.02192839417623      6.29146839581940      5.52330361636468
  H   3.10901171984064      6.88568519596655      5.35707675227920
  H   4.77504061358836      6.95400789087522      5.97232720775544
  C   3.71486429848428      5.12283622078376      6.48151095920175
  H   4.64951929124551      4.59073635925462      6.71793499160634
  H   3.32831029319716      5.52193227307325      7.42811597076586
  C   2.70436129947936      4.14345698674757      5.86307274259028
  H   1.74127095843681      4.65441892890127      5.70923351896768
  H   2.51592943276932      3.30692864679291      6.54811102169653
  C   3.20926441193848      3.59399764989531      4.51367836456304
  H   4.12394881194210      3.00022442776086      4.67221828708526
  H   2.45117142423189      2.92969429798008      4.07589019279660
  C   4.11425906482464      3.15952952677098      1.79298773407690
  H   3.71264833318269      2.36211768244697      2.42452483597771
  C   4.63783926166252      2.75354607123933      0.51906848621037
  C   4.69999101382313      1.36132497008134      0.23543841377309
  H   4.38133857406768      0.65936146786263      1.00615456232677
  C   5.15579629480581      0.89718845836134     -0.98826316407656
  H   5.20505140158655     -0.16956682406384     -1.19128815224355
  C   5.54753800003569      1.83093105522666     -1.97311397819309
  H   5.90187171685642      1.47584113371352     -2.93946310599127
  C   5.48780618619839      3.20056148976533     -1.73393019206448
  H   5.78128006607192      3.92168688891863     -2.49334794409797
  C   5.03627554074651      3.69921056964392     -0.48840303373339
  C   4.80005977782489      8.03748788736300      3.34468630473211
  H   4.60578133473420      8.39375967081796      4.36023069828179
  C   5.05764738995490      9.04692168900689      2.35675498175402
  C   4.90157913705972     10.40715768139374      2.73073774586248
  H   4.57271775703945     10.63383725564223      3.74504471996449
  C   5.15119350124377     11.43396523604408      1.83093610166909
  H   5.02309763441978     12.47211764209848      2.12718241183672
  C   5.59018515856345     11.11095218496968      0.52797710672339
  H   5.80032226268554     11.90945841933527     -0.18206727747140
  C   5.76943602337935      9.78656776765857      0.13549759455968
  H   6.12275093036398      9.53327717438581     -0.86158908374619
  C   5.50782240240277      8.72458654374508      1.03357524734533
  C   2.82779699294712      7.34229127764050     -0.27630599710010
  H   3.13844755146917      6.75224858031983     -1.15062045365301
  C   1.97619135458020      9.48903747129771      0.51384703643581
  H   2.66980617138234     10.33851430656135      0.54559307171645
  H   2.01694625456068      8.94310951722301      1.45787841101491
  H   0.95828163248961      9.85325630822763      0.32901887635728
  C   2.32037698402376      9.07041382289194     -1.93374908467740
  H   2.97795470895996      9.94350322254094     -2.03531332436149
  H   1.29412897711117      9.36153352923646     -2.19095038229021
  H   2.65532118704147      8.28459181418420     -2.61801614036496
  C   8.08207639829318      5.43168253188343      1.15913965686354
  H   8.11537488286263      6.50194402015015      1.36768774208630
  H   8.99614946589531      4.94477529951033      1.51938146401012
  H   7.95505011582939      5.27341730394540      0.08132430328867
  H   6.83490590091810      3.97361557051896      1.67329413488190
