63
Coordinates from ORCA-job BAFKOL-CH3OH_1_3_tpss_d4_lanl2dz_631gpol_Mn3.opt
  Mn  5.01748522949943      5.97113995440435      1.41088411685214
  O   5.14263695229063      5.07850431923591     -0.21480853749669
  O   5.87301985632562      7.50003732911370      0.75810507693915
  O   3.30253516072459      6.81309117604685      0.93090112943555
  O   6.81303091062564      5.16784303650643      1.96132631382495
  N   4.15129508403730      4.44948475031151      2.27098240782012
  N   4.82361002372676      6.78860271009637      3.16997069766676
  N   2.58786558461653      8.38431982297881     -0.56383542096095
  C   3.57483021929479      4.79076135383138      3.59426116756611
  H   2.63985625590104      5.33617698688794      3.38731513489626
  C   4.56298624872618      5.79376388744186      4.22788685794891
  H   5.51635531033391      5.26547973905291      4.39324605841675
  C   4.04395442241993      6.32658073684698      5.56822012529654
  H   3.11746811941683      6.89925420089872      5.40214103248192
  H   4.78048921805649      7.00679866924542      6.01823612512453
  C   3.76311062661806      5.14808248199106      6.52186836870071
  H   4.70974885946854      4.63623128815400      6.75619617429540
  H   3.36690946647193      5.53235083071030      7.47065443516743
  C   2.77565362444800      4.14892653620731      5.89732971611080
  H   1.80066511058867      4.63923623990305      5.74992000217779
  H   2.60709286493376      3.30380193887081      6.57715951226404
  C   3.28524553264652      3.61831898433951      4.54158390121766
  H   4.20632258260862      3.03189145259100      4.68935933292034
  H   2.53119614902591      2.94835477873874      4.10640288445520
  C   4.05284160598474      3.23832870879020      1.77217043912465
  H   3.57941933244951      2.46088703239913      2.37645172875653
  C   4.51306111898054      2.84088884610601      0.47496770668099
  C   4.40922452526284      1.47106764509114      0.10619689028397
  H   4.00880933203868      0.76628219723088      0.83516691588939
  C   4.80165307916658      1.03274013919976     -1.14781331423514
  H   4.71904637249758     -0.01771473143403     -1.41566879262990
  C   5.30512593162867      1.96884316724512     -2.08050389755113
  H   5.61287408475254      1.63158235957097     -3.06887844944609
  C   5.41373520355652      3.31602768344654     -1.75679824820765
  H   5.79696815518261      4.04202960692631     -2.47083716890350
  C   5.02461814882798      3.78416711076858     -0.47707967098927
  C   4.78069220435012      8.07706533001066      3.38527582164857
  H   4.53403253520283      8.43380007278076      4.38850325916258
  C   5.04366248065919      9.07978117314687      2.39301242415841
  C   4.79393578198748     10.44078610136678      2.70971350668410
  H   4.39068798821207     10.68128443333378      3.69371836377689
  C   5.04735109424844     11.45062575612734      1.79254772996225
  H   4.84489064826474     12.48881146198056      2.04495966054313
  C   5.59514837314127     11.11641237862612      0.53273129600113
  H   5.81057038311283     11.90515359107996     -0.18668811755617
  C   5.87399759436830      9.79477157642501      0.19984839600990
  H   6.31008603743074      9.53155940916179     -0.76171570948954
  C   5.59686489900605      8.74686840882657      1.11298063520618
  C   3.26814376014291      7.28612922090816     -0.25201350675070
  H   3.81879840937626      6.79412794402519     -1.06066074700726
  C   1.90672114729586      9.17888067982945      0.46780799074407
  H   2.35459639587366     10.17953329406699      0.49740666684002
  H   2.04113614878662      8.68185703007342      1.42920095281519
  H   0.84029161581669      9.25709579724666      0.22489544648335
  C   2.56694184543141      8.89789775396016     -1.93799545462295
  H   3.02972169980628      9.89219757797054     -1.95851847408887
  H   1.53171418692367      8.96984241823242     -2.29243717776427
  H   3.12832206610818      8.22053993485408     -2.58818552075923
  C   7.94141573931955      5.37467515121249      1.04714645027047
  H   8.04181165202214      6.45590174904723      0.96043105869985
  H   8.83101206527714      4.92752094874379      1.50201312954560
  H   7.71924490206173      4.93414863515754      0.07074699127311
  H   6.66008804263876      4.20334920205935      2.05356417631971
