57
Coordinates from ORCA-job BAFKOL_1_3_tpss_d4_lanl2dz_631gpol_Mn3.opt
  Mn  5.14246378028509      6.09520365517837      1.44121110748015
  O   5.52020169060523      5.13172469844395     -0.07219862455642
  O   6.07107340643552      7.56465729552804      0.83837045268237
  O   3.41419399230207      6.79911601378656      0.93068828440109
  N   4.32846778170021      4.53921996196240      2.29106066150841
  N   5.07250628838887      6.83485361328472      3.24056275362608
  N   2.21532587118503      7.83765678998788     -0.71035407647156
  C   3.74801556179016      4.86633490669133      3.61884165212190
  H   2.83023940453662      5.44228228826626      3.41197054692908
  C   4.75317348967110      5.82289386497857      4.28220409113801
  H   5.68294671321442      5.25784033028290      4.45935311175299
  C   4.23024758119335      6.35271955163430      5.62325622789475
  H   3.33157029700856      6.96617205658152      5.45104454887072
  H   4.98312094468192      6.99075864644268      6.10580751763257
  C   3.89132522785808      5.16793573429449      6.55094510148030
  H   4.81675482635368      4.62433916030222      6.79732260157567
  H   3.48750285963835      5.55122401514795      7.49690751339585
  C   2.88837180136326      4.20781015796988      5.89208869042642
  H   1.93089674562869      4.72861981317306      5.73370776613719
  H   2.68257413571171      3.35771402680564      6.55509567392957
  C   3.40968822649298      3.68446606533858      4.53803508214549
  H   4.31123256455037      3.07055589906954      4.68997438694616
  H   2.64429891403266      3.04465224501940      4.07836512913673
  C   4.15283840922557      3.35357295659324      1.75405949683241
  H   3.63842579608247      2.58878787779548      2.33996149501195
  C   4.58443430861813      2.96529239076022      0.44802138263960
  C   4.34067222374086      1.63723367859153      0.00777895452575
  H   3.82701740665600      0.95061621633436      0.68052004185508
  C   4.74851273754411      1.21635931515801     -1.24843504676363
  H   4.55816438504943      0.19744747991750     -1.57655207274891
  C   5.41990754798117      2.12354634801831     -2.09995589141216
  H   5.74507354388329      1.79507922987002     -3.08559122324954
  C   5.67374816445410      3.43132018575646     -1.70048165355190
  H   6.19694217283097      4.13277319715687     -2.34617182069117
  C   5.25826971601398      3.87843440187216     -0.42458915765963
  C   5.23409707540319      8.10152500854012      3.54739007343644
  H   5.07958948146931      8.40993522569922      4.58363265511871
  C   5.63735162013894      9.12345277049260      2.63167101270060
  C   5.69046309293417     10.47148880948530      3.07583089247607
  H   5.36725717527473     10.69968298546228      4.09139873791557
  C   6.14618731271045     11.48012511253619      2.24121955331979
  H   6.17908410890905     12.50976370677323      2.58901045622682
  C   6.58483290858590     11.15654985493963      0.93633977417237
  H   6.95536179244414     11.94502441429351      0.28339591726453
  C   6.55768224634545      9.84573488564338      0.47352947382480
  H   6.90962393631088      9.58573310588091     -0.52231024795822
  C   6.07368338448425      8.80632747927974      1.30360473560759
  C   3.32687743987885      7.27267892732530     -0.25244080886201
  H   4.17851459493061      7.22415773469680     -0.93667618987031
  C   1.01468444544980      7.96129997025066      0.12994810429482
  H   0.76009005352837      9.02201996712781      0.24147498624416
  H   1.22478493744513      7.52035735809740      1.10557742584676
  H   0.18108681589699      7.43647553909728     -0.35166868323519
  C   2.14460430342291      8.36894888919844     -2.07857143571092
  H   1.92010182919752      9.44170820616201     -2.04324553073109
  H   1.35278594246187      7.85090506122220     -2.63279682073883
  H   3.10345698606863      8.21359091980035     -2.58153878631417
