42
Coordinates from ORCA-job CAXTUR_1_4_tpss_d4_lanl2dz_631gpol_Mn2.opt
  Mn  0.12582204881681      4.76454668505437      2.38513871542497
  Cl  1.38737343201685      6.59154135688340      2.15449876690774
  N   1.15317930245780      3.20764232146307      1.46646113565879
  C   0.01454701951470      3.97058924689161     -0.46512636772327
  H   0.77971251897386      4.66694301370651     -0.83057444768638
  H   -0.58451391696978      3.62823677483488     -1.32027259615430
  C   0.70322042709551      2.83207868089594      0.25370924434766
  C   0.92085736667392      1.53758405426968     -0.22054165613986
  H   0.56256377847711      1.23555905096245     -1.20217331595956
  C   1.60849145066552      0.63407930081171      0.60630950650691
  H   1.79226197435129     -0.38180768742617      0.26459010991310
  C   2.04169112215436      1.03359481375299      1.88132067408424
  H   2.55868281981484      0.33814407136028      2.53873783848760
  C   1.78536268912854      2.34496611495503      2.28499601743939
  C   2.17585566414497      2.99672887363786      3.59239284063925
  H   2.44396130709929      2.26373611649338      4.36579985949902
  H   3.04015606182948      3.64861832067320      3.41458593350252
  N   -0.86097565518447      4.77169245813456      0.47950733641003
  N   1.07371023283606      3.90056468001341      4.11077816231291
  N   -1.14749314975298      3.35929363687383      2.73029556432876
  C   -2.18121756422668      4.07862624512657      0.70497142805195
  H   -2.58571626882278      3.69862725132937     -0.24351916538498
  H   -2.87040047882969      4.84606666291979      1.08478910475323
  C   -2.02580988855782      3.00357537742145      1.74237799879843
  C   -2.71382364061475      1.79619966928367      1.78809887335806
  H   -3.40660429909458      1.53922288785915      0.99015035512684
  C   -2.50341421748312      0.92446137515730      2.86856172629573
  H   -3.02985667101995     -0.02469480888888      2.92131248812211
  C   -1.60247770868856      1.29599784277058      3.87934051012544
  H   -1.41750088526618      0.64462231078257      4.73034811557154
  C   -0.93875874322545      2.51476207345149      3.78699669990322
  C   0.00143538719348      3.09704876968788      4.80362971362273
  H   -0.55010733833625      3.80462453872853      5.43875892820379
  H   0.45009386844741      2.33368889982338      5.45438327594520
  C   -1.10185126156221      6.12874110950834     -0.10916156830738
  H   -1.70951072017321      6.71182930076678      0.58891339725395
  H   -1.62568573335025      6.03643470016310     -1.07211601330924
  H   -0.14038080365969      6.62946169930121     -0.24194187235449
  C   1.66321942439843      4.88379087066545      5.07656259154108
  H   2.10398680637329      4.35344837305292      5.93371821541570
  H   0.87175854523366      5.55471900751702      5.42248479986432
  H   2.42265569712121      5.47311395933020      4.55810707560319
