48
Coordinates from ORCA-job CAXTUR-CH3OH_1_2_tpss_d4_lanl2dz_631gpol_Mn2.opt
  Mn  0.25558584398670      4.52889539343003      2.25543001746623
  Cl  1.99418081388379      5.93047638380712      1.66935659127544
  O   -0.70389189153022      6.04041785078941      3.32868610355794
  N   1.11439343752483      3.03923599393938      1.44288009735444
  C   0.11922126152547      3.83451205735233     -0.55398588577165
  H   0.89810850586437      4.53586862959384     -0.88188921448100
  H   -0.45451292976839      3.50374556731838     -1.43173200064249
  C   0.79244024292113      2.70152533297347      0.16849431474760
  C   1.16853148058249      1.47031161407730     -0.36563416885100
  H   0.90743836902644      1.21694758872973     -1.39046692600535
  C   1.89295964428044      0.57768205718789      0.43787262113235
  H   2.19292593199372     -0.39114508473138      0.04595042695868
  C   2.23915654264424      0.94778800332415      1.74549848645191
  H   2.82022177400561      0.28264207151241      2.38010724139668
  C   1.83558718191009      2.19417668965086      2.22262092819525
  C   2.21306016307771      2.81870464096208      3.53808686065196
  H   2.45493281730087      2.07496710660062      4.31095832774481
  H   3.09636955983684      3.44864434783614      3.36892212620859
  N   -0.75150326900282      4.60348479806153      0.40573138358202
  N   1.12533461621704      3.75077933419073      4.00074215143830
  N   -1.13570469509539      3.26978834193620      2.67646111916963
  C   -2.08697971762232      3.92934845636819      0.59010561142110
  H   -2.44951574612666      3.50203654404016     -0.35562524074500
  H   -2.79471173404347      4.71566276609410      0.88863987956845
  C   -1.99853165351832      2.90035686068647      1.68457350274019
  C   -2.71581986389842      1.70913043553684      1.75215118965979
  H   -3.39683928719320      1.43925902151173      0.94802559478288
  C   -2.53991374119850      0.86654206503512      2.86082227041143
  H   -3.08532541040141     -0.07110892895799      2.93115861335455
  C   -1.63769292319990      1.24113824193570      3.86835020316371
  H   -1.46744262368495      0.60287614197722      4.73245590073873
  C   -0.94650384000960      2.44412974025439      3.74812126609307
  C   0.03713753764809      3.01235946186081      4.73465658599786
  H   -0.47111739265570      3.75990289476182      5.35860833449923
  H   0.45603800535842      2.24445541884817      5.40060966626156
  C   -0.95103684626528      5.98431190631529     -0.12811788062713
  H   -1.60204667012937      6.53350302335753      0.55902884488430
  H   -1.41968027164124      5.95410412052907     -1.12342431808875
  H   0.02364561999125      6.47754015038877     -0.17534945166445
  C   1.71760703777398      4.78825784438662      4.89970433028185
  H   2.17635747665977      4.31857511062324      5.78296162721347
  H   0.91927753923619      5.46617786711345      5.21263206111715
  H   2.46498609323151      5.34837329712389      4.33146903679840
  C   -0.45818938071827      7.48162482711539      3.25478503679051
  H   -0.90563338220501      7.90346559888641      2.34803431112986
  H   -0.87623701061176      7.95074568539374      4.15190028148292
  H   0.62538510550056      7.59043530184214      3.21364965665419
  H   -1.66329232146135      5.87831742842936      3.40418248449967
