48
Coordinates from ORCA-job CAXTUR-CH3OH_1_6_tpss_d4_lanl2dz_631gpol_Mn2.opt
  Mn  0.40853606030425      4.89872632886360      2.23336543981328
  Cl  2.03955701132554      6.46404380924289      1.65641160252406
  O   -0.84185177495000      6.28228233469581      3.41993396085440
  N   1.20163214541705      3.01599459650012      1.39943604605789
  C   0.11005541003664      3.73654117329461     -0.62074557549964
  H   0.90434788231470      4.38067692837996     -1.02151475915363
  H   -0.45715884154845      3.32461649137829     -1.47097286151516
  C   0.76873608327142      2.63138416937279      0.18429829221641
  C   0.96482731475450      1.32461335536844     -0.27151503979919
  H   0.61527355812024      1.02397638676675     -1.25669184387172
  C   1.61247726942812      0.41438214724438      0.57456599196058
  H   1.77740807760128     -0.61016567071546      0.24831679119789
  C   2.02797512718499      0.82027213714318      1.84941474138087
  H   2.51333812397935      0.12346687399866      2.52912596482445
  C   1.79584348234790      2.14458265355663      2.23415578840479
  C   2.21627765721551      2.73841476213424      3.56684735990043
  H   2.40457712477860      1.94786026505559      4.31109670219004
  H   3.15744840141849      3.28251298071214      3.41026983182918
  N   -0.75357745437431      4.61299210609702      0.22742445410732
  N   1.22989608714221      3.73706301234426      4.07649198887126
  N   -1.20004650875890      3.39080210878941      2.70429354064555
  C   -2.07035521707005      3.97948914511215      0.53231747169264
  H   -2.51252798295127      3.51637079541180     -0.36443758161742
  H   -2.74307151409803      4.78602207138424      0.85432630965666
  C   -1.93684357318769      2.96723601826132      1.65371071431756
  C   -2.48763032514888      1.68316089845708      1.61492776697902
  H   -3.08221137665222      1.36682710895811      0.76078431391202
  C   -2.24135389186669      0.81325841698810      2.68446544024108
  H   -2.65666046894862     -0.19236140961288      2.68088347933312
  C   -1.41920944155120      1.23474685109742      3.73739172170571
  H   -1.17076933124301      0.56428516661561      4.55727605479798
  C   -0.90247535257815      2.53289634446975      3.70627259179311
  C   0.05914046881992      3.08863375978680      4.73810079649473
  H   -0.44760677673574      3.87356962617402      5.31530222169733
  H   0.37751955356497      2.30369844924530      5.44287790994163
  C   -0.94442259065309      5.92941039200204     -0.44393187588910
  H   -1.56730874159380      6.56121948623336      0.19870914251989
  H   -1.42978016773030      5.82210294130737     -1.42712562799742
  H   0.03560613160651      6.40410986090912     -0.55490672724858
  C   1.89910353036136      4.68321856245502      5.01255796060369
  H   2.32212026941287      4.16348016535464      5.88703843032862
  H   1.15957527390186      5.41769521205889      5.34750616529555
  H   2.69062981222098      5.20770201389212      4.46777869985285
  C   -0.70030598741112      7.73143462876881      3.53317711544548
  H   -1.45061127928678      8.23416380189618      2.91227326872226
  H   -0.80434991975131      8.03281534761094      4.58193794168249
  H   0.30316841819955      7.94930298986349      3.16280789881749
  H   -1.74618175663923      6.01144240507560      3.67216997998237
