43
Coordinates from ORCA-job CAXTUR-oxo_1_2_tpss_d4_lanl2dz_631gpol_Mn2.opt
  Mn  0.06353877330451      4.71586808133665      2.37854943799012
  Cl  1.90871343514177      5.86689490159123      1.68316018499489
  O   -0.81674482630535      5.79797172967532      3.18968056836789
  N   1.02474383542925      3.11824785291362      1.51226466824901
  C   -0.01111979906049      3.95419207552715     -0.44913062896451
  H   0.74977704158153      4.65902772472680     -0.81008511680800
  H   -0.61430379263656      3.61844871209832     -1.30372222568945
  C   0.72082826820659      2.82379262319935      0.23739594996119
  C   1.18236313587545      1.63845151430880     -0.34009049767037
  H   0.94605835443560      1.38985873018511     -1.37168525539631
  C   1.96756013262551      0.78293525287666      0.44813921120910
  H   2.33455182554663     -0.15099021121260      0.02844082214267
  C   2.29608783024244      1.12932800666093      1.76770554507438
  H   2.92498292780329      0.48343248812229      2.37536376510142
  C   1.79921889289362      2.33233418134145      2.27660994800079
  C   2.13670254833554      2.97260586948119      3.60468184507828
  H   2.39404331081085      2.23571474649889      4.37861927859999
  H   3.00780664696993      3.61963037863001      3.43581832851101
  N   -0.86651838818985      4.72483401143735      0.52746236692383
  N   1.02840021496930      3.87409709800528      4.07706781979180
  N   -1.21091758503426      3.27605268458596      2.73611605283411
  C   -2.20446544542857      4.05549365588500      0.71816189147109
  H   -2.58092856991171      3.66138784764035     -0.23562758468384
  H   -2.89807218814973      4.83331529589062      1.06306284039807
  C   -2.12875749599014      2.99654058062601      1.79096319156648
  C   -2.94069317402315      1.86775357520779      1.91652541974591
  H   -3.68560993910017      1.63391351861591      1.16028621960965
  C   -2.77335531195743      1.04935590650627      3.04370779760832
  H   -3.38792126120595      0.15984273443517      3.16175971764495
  C   -1.82043827563604      1.37308138362580      4.02030800273075
  H   -1.68928137213152      0.75263308613097      4.90310956509459
  C   -1.04059356249312      2.51738362761333      3.83498747298932
  C   -0.03322640295573      3.09450604045015      4.80284349292132
  H   -0.56297213955109      3.81041576506735      5.44494036639582
  H   0.41420864131309      2.32367431453860      5.44572217253020
  C   -1.07062777540180      6.12414932523011      0.02413025053511
  H   -1.65865958753250      6.66597046298499      0.76899716675596
  H   -1.58895050951798      6.10916334248012     -0.94550275647765
  H   -0.08907487903453      6.59580031813969     -0.06699322690515
  C   1.58238154862053      4.93635289584259      4.97580465606945
  H   2.03799112608061      4.48752023969124      5.87067065656045
  H   0.76126070241843      5.60303530283986      5.25120862082828
  H   2.32361308864321      5.50538232856819      4.40877199830899
