62
Coordinates from ORCA-job DUCFAJ-OH_1_1_tpss_d4_lanl2dz_631gpol_Co2.opt
  Co  -2.08201599253300      9.09684098608695      3.97103965733324
  S   -5.75695273944190      7.11282597462854      2.90926311924343
  O   1.17590793540792      8.80073567116261      0.51628246189526
  N   -0.79327500248109      8.28748828831986      1.58964833365922
  H   -1.63756567641418      7.70575294760615      1.69100810440379
  N   -0.67046938420600      9.08768608111220      2.66498774492117
  N   -0.96967923552048     10.43532589182715      4.81790414086908
  N   -3.00177268659465      7.68991252116713      3.01856618946504
  C   -1.61267483875506      6.71647815785778     -0.67092002928106
  H   -2.41395388442634      7.03460223645170     -0.00485847814718
  C   -1.91542854943639      5.82601887244955     -1.70420755978013
  H   -2.93061186277058      5.44969010451140     -1.81097477482556
  C   -0.91660726897574      5.42528881222943     -2.60345432148226
  H   -1.15733436205817      4.72886905220301     -3.40435922350499
  C   0.38861758496890      5.92409932296827     -2.47703228192401
  H   1.16178737322180      5.61546681344743     -3.17752638533389
  C   0.69750317779727      6.81742688619726     -1.45042802944924
  H   1.70122700533712      7.21882208593089     -1.33359107898117
  C   -0.29849888503491      7.21231794455668     -0.53497752912887
  C   0.12128108530928      8.16048350729043      0.52565888086018
  C   0.34707100641304      9.87234046957008      2.92575350143692
  H   1.20943024092985      9.92504033808753      2.26968760032468
  C   0.20611892252633     10.63524929695501      4.14653801149497
  C   1.17843406222649     11.51982890084179      4.63433414329839
  H   2.10240737907202     11.65816946079840      4.07855988260538
  C   0.93853373719420     12.19751966868716      5.83248165214904
  H   1.68081331106391     12.88478987847875      6.23147825714121
  C   -0.26552967478145     11.97671014900414      6.51198418280257
  H   -0.48911588070353     12.48010467910674      7.44854514421439
  C   -1.19703811197568     11.08437939803367      5.97233941384536
  H   -2.14016481360855     10.87773806669136      6.46782219447465
  C   -4.19482497189748      7.45449284006426      2.98666869261346
  O   -5.27890140612560      8.76573515987800      7.41334493554065
  N   -3.27822473923793      8.37036065909416      6.35122579115959
  H   -2.38526433858673      7.83818281684662      6.16103526854796
  N   -3.46904035570824      9.15955826261282      5.28657934981668
  N   -3.21128209704687     10.43337570061074      3.09306046210624
  O   -1.17024611056505      7.81384773121166      5.00094511109860
  C   -2.44101752756563      6.69432333516381      8.51449745491036
  H   -1.66346481780679      7.01189460316689      7.82130958601329
  C   -2.11174685202762      5.78742487401082      9.52527461287187
  H   -1.09612009462742      5.40305897324788      9.59441825605066
  C   -3.08399776129048      5.37704996396261     10.44898602600074
  H   -2.82202990377911      4.66772334629971     11.23183234496194
  C   -4.39082382750297      5.88118666066959     10.36843941378233
  H   -5.14422387889855      5.56392512646151     11.08649007815203
  C   -4.72628097760608      6.79129357408882      9.36522770300302
  H   -5.73161483111080      7.19733148837955      9.28326231189129
  C   -3.75603840580271      7.19874788600261      8.42797493915486
  C   -4.20020740027222      8.16593079350366      7.39523943960918
  C   -4.49309316503772      9.93906644215201      5.03050088950722
  H   -5.34335265163557     10.00269944273264      5.70075781390915
  C   -4.37463492710347     10.66176847399329      3.78094001671061
  C   -5.35740713466243     11.52594298721991      3.27680423709074
  H   -6.27340173292242     11.68084358566890      3.84109244483027
  C   -5.13920302112333     12.15860348918948      2.05098552464979
  H   -5.89084388856948     12.82777499450508      1.63894767791568
  C   -3.94551730067346     11.91674389453165      1.35853742027608
  H   -3.73984965622147     12.38819701442624      0.40146579310506
  C   -3.00488779563346     11.04498236482051      1.91344124142261
  H   -2.06823658232931     10.82180717999868      1.41133654144631
  H   -1.31743581837982      6.97901387122583      4.50494569725172
