60
Coordinates from ORCA-job DUCFAJ_1_4_tpss_d4_lanl2dz_631gpol_Co2.opt
  Co  -2.07440355017040      9.44038996535261      3.86986064213500
  S   -4.40006403478033      5.61430042505966      4.43249573836946
  O   1.09684275839561      8.78214459167863      0.17142899373748
  N   -0.77037401898765      8.37102210265114      1.44555918258736
  H   -1.47906458616806      7.70059021320848      1.76327243240400
  N   -0.62525214869576      9.34079412286734      2.36955409843135
  N   -0.68268331402996     10.91211427831192      4.48859738203223
  N   -2.59315254545399      7.58825398363475      3.54488028574603
  C   -1.52425301565874      6.25067935782255     -0.34183326171192
  H   -2.31812175654868      6.63577063393815      0.29683320158771
  C   -1.78731358177312      5.12680050550810     -1.12937689698885
  H   -2.76118315893188      4.64511274798647     -1.07321428494222
  C   -0.80241309206744      4.62744375579487     -1.99366942564043
  H   -1.01127177052503      3.75039179537298     -2.60329167410148
  C   0.44733122609826      5.25933630375801     -2.07903513481467
  H   1.20938953029898      4.87421292665910     -2.75339717475958
  C   0.71534855953397      6.38442595284749     -1.29801735558092
  H   1.67555610317598      6.89216646076938     -1.34845723377392
  C   -0.26509061962389      6.88270135317465     -0.41685850318583
  C   0.10741860367277      8.07641292126528      0.38274579087281
  C   0.32657067362179     10.23675596288365      2.40500119697553
  H   1.10779678675637     10.29486109242023      1.65340215901248
  C   0.29912551679789     11.12926856847015      3.56102944216131
  C   1.24671378173073     12.15123612860885      3.72645014417970
  H   2.01616555231924     12.29812578388701      2.97196230783044
  C   1.18540662446106     12.95856729564801      4.86602552410284
  H   1.91329690244742     13.75314553445428      5.01428673173089
  C   0.17728064444356     12.73074267065677      5.81148799865273
  H   0.09663019661297     13.33460362007093      6.71136618722125
  C   -0.73753959230455     11.69876460054643      5.57881256465871
  H   -1.54168586141057     11.48145452868829      6.27837832740122
  C   -3.38214929433629      6.74490507467971      3.91836082931018
  O   -5.35325806176391      8.72809794335904      7.45145461464886
  N   -3.22751746041832      8.55000394852920      6.56297151879134
  H   -2.52884247321392      7.85116073656629      6.31575288637765
  N   -3.33419457421066      9.48233769613470      5.57972136828824
  N   -3.41888773768305     10.91402614476653      3.36949331916785
  C   -2.70470269238582      6.37446227438519      8.37474077014875
  H   -1.83113908961766      6.95553985752059      8.07948922515487
  C   -2.52034196524396      5.17170059478363      9.06135746171223
  H   -1.51337623127237      4.81208774423298      9.26223630729436
  C   -3.63136233633919      4.43592710120520      9.49817664325168
  H   -3.48406324054866      3.49613605057426     10.02684359587017
  C   -4.93005616780939      4.91223821733416      9.26453382142820
  H   -5.79055443347733      4.34314268365228      9.61000964779085
  C   -5.12105649409375      6.11805418791075      8.58827516982100
  H   -6.11814204903907      6.50644345937018      8.39607327782332
  C   -4.00886817496409      6.84913754516477      8.12760208252754
  C   -4.29582776714556      8.10421046663931      7.39202231276973
  C   -4.29230615627856     10.37359882237096      5.53727407475504
  H   -5.05399281921610     10.45639087245746      6.30527907497518
  C   -4.32720550852948     11.20916370965650      4.34595799773321
  C   -5.26000549810865     12.24620478203271      4.18677139800370
  H   -5.97528935213867     12.45224039052488      4.97961356337768
  C   -5.25238558942755     12.99037236884197      3.00419360230393
  H   -5.96891682814348     13.79553804304015      2.85836892378112
  C   -4.31302228782961     12.68503680598042      2.01008324194754
  H   -4.27815009074516     13.23720805386861      1.07480742268153
  C   -3.41209199059230     11.64013466612953      2.23589394466828
  H   -2.66430044866374     11.36130957429075      1.49656251726476
