61
Coordinates from ORCA-job DUCFAJ-oxo_1_2_tpss_d4_lanl2dz_631gpol_Co2.opt
  Co  -2.03503460179172      9.32951929260228      3.98448164858585
  S   -5.06659134304476      6.28268742861724      4.07257368515812
  O   1.19197941180061      8.77260224109579      0.54915247765419
  N   -0.82451758697348      8.43167367418228      1.60440090540643
  H   -1.65002579348536      7.84114415852181      1.78589726869037
  N   -0.69429157070894      9.32148475158676      2.59899636609009
  N   -0.92184250566581     10.75547763914377      4.71004367156970
  N   -3.04215201822933      7.95628397847194      3.05581125214230
  C   -1.54237533482529      6.48824873465881     -0.37591846031948
  H   -2.36358391711258      6.88537165301555      0.21941296242534
  C   -1.80521479357369      5.44117682754357     -1.26264913859081
  H   -2.80990098893227      5.02857484614270     -1.32662934598361
  C   -0.77977502719464      4.92784299255729     -2.07003392915664
  H   -0.98886527044277      4.10933889190966     -2.75626481087547
  C   0.51249249045383      5.46962138861295     -1.99931044669656
  H   1.30659863191053      5.07330866271796     -2.62853392818863
  C   0.78173055787638      6.51913407214316     -1.12000067193042
  H   1.77471391830502      6.95624386300112     -1.04821410676001
  C   -0.24157670923980      7.02969745878327     -0.29612567950284
  C   0.13722451577012      8.13718804179098      0.61404537165668
  C   0.29077270645579     10.17321850152818      2.75331250597535
  H   1.11772345539868     10.22184195572222      2.05258569902789
  C   0.18303388512565     10.99586056172672      3.93841740975379
  C   1.12054971388742     11.97141196337182      4.30828027229442
  H   1.98968211627793     12.14284581847720      3.67832574234313
  C   0.91898307038201     12.69369984591820      5.48721196413897
  H   1.63767197711939     13.44955617060541      5.79491779288333
  C   -0.21339906394995     12.42923501681270      6.26824134798440
  H   -0.40185670412091     12.96534312090135      7.19426222095550
  C   -1.11469589217691     11.44829409176209      5.84540330702422
  H   -2.00386012160376     11.20288096162750      6.41749869624498
  C   -3.90721202648013      7.23918664273580      3.52291429069854
  O   -5.15967817615129      8.88902519544628      7.50828705334153
  N   -3.19592516211829      8.52289101140069      6.36802091924112
  H   -2.30335390679067      8.01145845306577      6.16748382646631
  N   -3.37592513190907      9.38758200496949      5.36328030161036
  N   -3.23867786849866     10.69254031232067      3.15764805230374
  O   -1.12317278043575      8.11987232921925      4.87867556679907
  C   -2.91237089049696      5.99970636142460      7.68822322178463
  H   -2.42487035017478      6.08100451797565      6.71829936333997
  C   -2.66406100728159      4.87520434003402      8.47933819204372
  H   -1.96793039268920      4.11467184872883      8.13192650301794
  C   -3.31974494596970      4.72103162907895      9.70935806851785
  H   -3.12100331766083      3.84403342382333     10.32267309738840
  C   -4.23866734867296      5.68716567816310     10.14726517950505
  H   -4.75088404762872      5.56222858908737     11.09900951386470
  C   -4.49822339573300      6.80957124906493      9.35997903856180
  H   -5.21125296483029      7.56819026820647      9.67422899005372
  C   -3.82673329012305      6.97798432193416      8.13224778979800
  C   -4.15861639421780      8.18747657668867      7.34602402494503
  C   -4.39028623336420     10.19853215557262      5.17779744226501
  H   -5.20173272523930     10.26144584731729      5.89601619010819
  C   -4.33854983911356     10.93980068215248      3.93363489946954
  C   -5.33703184575815     11.83226050248001      3.51498325732714
  H   -6.20275360958625     12.00577111262036      4.14919620946542
  C   -5.19808773284942     12.47043429321152      2.27957197949943
  H   -5.96223379621425     13.16219363482304      1.93275295959471
  C   -4.06965308256526     12.20455125714351      1.49293252915134
  H   -3.93088243403404     12.67680802764245      0.52420979915432
  C   -3.11057428744659     11.30590212121585      1.96977330676937
  H   -2.22190822365722     11.05976700689888      1.39525638391280
