66
Coordinates from ORCA-job DUCFAJ-CH3OH_1_2_tpss_d4_lanl2dz_631gpol_Co2.opt
  Co  -1.72231877914340      9.07657406273289      3.99097797553287
  S   -5.06453330005063      6.72049162632117      2.41691194555143
  O   0.65424538908743      9.66270298419754      0.16560400474900
  N   -0.29117465213843      8.21929526887423      1.69373830079085
  H   -1.02802266060381      7.52051262860014      1.86027258272937
  N   -0.25987736671656      9.06304315991676      2.76313826029674
  N   -0.72193813505594     10.54689475848043      4.76172703166096
  N   -2.46326300735996      7.47280465915597      3.20737010831214
  C   -1.76029284234215      7.00319100965851     -0.48812180045986
  H   -2.27902307040727      6.98142211728252      0.46888698458929
  C   -2.28070768985832      6.25972903665904     -1.55082811807839
  H   -3.17033904048442      5.65291006847146     -1.39620743415435
  C   -1.66640772715656      6.30824535608434     -2.81025357957023
  H   -2.07266741180622      5.72416839900657     -3.63392080000959
  C   -0.53634099393251      7.11494884822001     -3.01547302632222
  H   -0.06459093581249      7.15500650508556     -3.99515509369124
  C   -0.01698082098505      7.86893861231549     -1.96231234190346
  H   0.85247678247628      8.50740686477874     -2.10053495575671
  C   -0.61675222677399      7.80524956278429     -0.68827093629884
  C   -0.02512798010056      8.65418538223754      0.37367803982006
  C   0.62878448019424     10.02657018264362      2.88685678966369
  H   1.43184208271101     10.17758062030169      2.17518948972828
  C   0.39504403135279     10.88230103493495      4.02785755341138
  C   1.19817763734823     11.97856990387373      4.37546579420126
  H   2.06588175085381     12.22096567514717      3.76663603452900
  C   0.86051097895146     12.74146425365604      5.49567933174937
  H   1.46970190338345     13.59529040926299      5.78254881512135
  C   -0.27477707877524     12.39159249140357      6.24084641023466
  H   -0.57029669587561     12.95833732287644      7.11976817388658
  C   -1.04009338370979     11.29380785550230      5.84148594672005
  H   -1.93023754681148     10.99053889640748      6.38520753475145
  C   -3.59070578017196      7.16444969947725      2.88368660064421
  O   -5.38730328491535      8.79565140503614      7.04047673856823
  N   -3.20208524595923      8.54650955177062      6.35166342743443
  H   -2.33465649731709      8.00319055186600      6.40554914071452
  N   -3.26323582127519      9.19006055027616      5.15367396025582
  N   -2.95068135880644     10.31383999047153      2.81130256262602
  O   -0.67732827362914      7.65443683001950      5.60571267261960
  C   -2.63944760012788      7.00044520476373      8.71582483489067
  H   -1.77143758586884      7.34352491459441      8.15395197911476
  C   -2.43531697602452      6.15783904042421      9.81180067165068
  H   -1.42557080886384      5.84949927120699     10.07619048901087
  C   -3.52664016809765      5.71563740158646     10.57335700517967
  H   -3.36242563627288      5.05748209621616     11.42444582815006
  C   -4.82649860806593      6.12402351587816     10.24176565817780
  H   -5.67362371231736      5.78335786115819     10.83341615891303
  C   -5.03599788960211      6.96938078301168      9.15064252183847
  H   -6.03420623172256      7.30055286951996      8.87500175946292
  C   -3.94572058241189      7.40860253166662      8.37471306205240
  C   -4.27442893277705      8.29904400096166      7.22733812199471
  C   -4.31671359759237      9.82661834301250      4.70474888531436
  H   -5.23628489788949      9.87129410547358      5.27876690672605
  C   -4.18138547685235     10.42680901692976      3.38696837274084
  C   -5.24701208680040     11.06782594645561      2.73700645943544
  H   -6.21702674906897     11.13390541063911      3.22408507702709
  C   -5.03484303896820     11.59658955969976      1.46087719177762
  H   -5.84572999855884     12.09042040973979      0.93028101296287
  C   -3.76758019787850     11.47978558478881      0.87591856936972
  H   -3.56231592971700     11.87984406338063     -0.11364150009686
  C   -2.75142640221795     10.83224577615188      1.58888620763591
  H   -1.74909376504695     10.72949793915189      1.17766711231850
  C   -0.31645227589504      6.31400932958860      5.15831876047333
  H   0.42034647113122      6.37144935440382      4.34874314843236
  H   0.07742478148594      5.73423704368659      6.00103992488212
  H   -1.24080508339513      5.87528911422056      4.78207890611700
  H   0.13092755103294      8.11513137589723      5.90685274979930
