61
Coordinates from ORCA-job DUCFAJ-oxo_1_6_tpss_d4_lanl2dz_631gpol_Co2.opt
  Co  -1.98134481726846      8.45713084615979      4.04395845457407
  S   -4.35914839084602      4.91021745568497      2.08427321599450
  O   0.95262491724512      9.30298451378556      0.13508625653935
  N   -0.51287316784935      8.08927488206923      1.42851772978628
  H   -1.21547115217981      7.35434356029567      1.47713439268233
  N   -0.47599809595373      8.80391551754526      2.57626469036471
  N   -0.82194105744446     10.07900505592960      4.86275492435596
  N   -2.96867922619520      7.24592866805121      2.83206938562619
  C   -1.50989053350417      6.82241312870200     -0.96581633506396
  H   -2.24519506663256      6.91187697402310     -0.16626329176828
  C   -1.81963681617056      6.03062058756826     -2.07496188471765
  H   -2.76427546241160      5.49168717357229     -2.10552682545625
  C   -0.92014672868333      5.94082505219416     -3.14690856951572
  H   -1.16251570067112      5.31910826681200     -4.00659899567054
  C   0.28557238689143      6.65773014794107     -3.11813659675195
  H   0.97952853039589      6.59280421436796     -3.95356111121480
  C   0.59804488507698      7.45565398944545     -2.01617149099035
  H   1.52561742380739      8.02162632005682     -1.97376721355999
  C   -0.29135522546985      7.53206173434179     -0.92639416319828
  C   0.12024421958937      8.39540483381286      0.21013599393992
  C   0.37870366586726      9.76338061907620      2.81092199826316
  H   1.15437228537841     10.03249800042787      2.10022566723719
  C   0.22698761279851     10.45901455181051      4.08170729781989
  C   1.11755452710415     11.46589491118421      4.48597993390127
  H   1.94344017960522     11.74764349064143      3.83689017182095
  C   0.92565581310814     12.08091540282045      5.72658388426352
  H   1.60384726816987     12.86205799193863      6.06244894479574
  C   -0.14514556201999     11.67201119971748      6.52995724913364
  H   -0.32704418797864     12.12020417213576      7.50316551954802
  C   -0.99285034554470     10.66223605913431      6.05904735201914
  H   -1.83466571720198     10.30961532203021      6.64890104176315
  C   -3.55287590842219      6.23670810278749      2.53418008664191
  O   -5.21508009990053      9.21315572367278      7.70331216992881
  N   -3.58653086393298      8.12296369341721      6.50330232593375
  H   -2.84353419977002      7.41864268588196      6.45307334369575
  N   -3.59263351698593      8.86166776770554      5.37246848105335
  N   -3.17218432700875     10.15568131033237      3.09722659509293
  O   -1.35873451422357      7.31259699051683      5.18033700054952
  C   -2.78364285219274      6.72377841841195      8.88769466595248
  H   -2.02266189536156      6.78647085953497      8.11009606155759
  C   -2.53342167346610      5.91848775027002     10.00198138250395
  H   -1.60459101578281      5.35507149894479     10.06137114404671
  C   -3.47189539899284      5.84242719587319     11.04109134920495
  H   -3.27390014522672      5.21016669047415     11.90453849272795
  C   -4.66111277198095      6.58380388544413     10.97322018668064
  H   -5.38689519402700      6.52781377676330     11.78187112449875
  C   -4.91589653568445      7.39454011157532      9.86609835783296
  H   -5.82943120250149      7.97967552895216      9.79237740843194
  C   -3.98395384968848      7.46223926122104      8.81132739584580
  C   -4.33589413241712      8.34641389851841      7.67134844769880
  C   -4.45536810373447      9.80237893664243      5.09667883643441
  H   -5.27684397988997     10.04240037106517      5.76616713597223
  C   -4.25994026121289     10.50846758516195      3.83632758392811
  C   -5.16148390992333     11.49704526568267      3.40838457120630
  H   -6.01918606452096     11.75099969643265      4.02729912745324
  C   -4.93769950036973     12.13026051220217      2.18224750191706
  H   -5.62157405696484     12.89797258620675      1.82725895650839
  C   -3.82484163677362     11.75711587776892      1.42059445861451
  H   -3.61292253436765     12.22185619055820      0.46114939066201
  C   -2.97174007887196     10.76256286811253      1.91838482231632
  H   -2.09594623681614     10.44565031659150      1.35727396858704
