62
Coordinates from ORCA-job DUCFAJ-OH_1_5_tpss_d4_lanl2dz_631gpol_Co2.opt
  Co  -1.87405574487784      8.59995101180786      4.08146386739333
  S   -5.55085018867300      6.90765072199057      2.47671683934997
  O   1.05348943685417      9.21781191103770      0.16192717985235
  N   -0.46337513342662      8.10155129288593      1.47770891291368
  H   -1.23238408417748      7.42874956799211      1.56270519161880
  N   -0.40074145979875      8.86617996084772      2.58689956123895
  N   -0.73355405914304     10.24007814279821      4.82436848002833
  N   -2.78203818272515      7.28750495251225      2.84814120487270
  C   -1.45484643806718      6.73926895563854     -0.87184734235837
  H   -2.15517699695337      6.78516781888086     -0.03831563328614
  C   -1.78848450617676      5.95604625052734     -1.98006315720090
  H   -2.71926189466933      5.39262595394668     -1.98076751318370
  C   -0.93203450933607      5.90423862170660     -3.08927110661090
  H   -1.19524916145253      5.29006003324083     -3.94831817205653
  C   0.25792496937132      6.64723965299462     -3.09659231616254
  H   0.92003744194850      6.60981967945890     -3.95912502295894
  C   0.59488059160418      7.43581887358789     -1.99552416750678
  H   1.51045690389257      8.02221197495066     -1.98036606569276
  C   -0.25329390233747      7.47903108912529     -0.87089063212013
  C   0.18472347283613      8.34554206619973      0.25209321621063
  C   0.49239762430050      9.79616296362960      2.80752686519259
  H   1.29498516155107     10.00453961901838      2.10635888302553
  C   0.34340526001243     10.54875456289680      4.04840279423570
  C   1.25915153367884     11.54261346267920      4.42673521524932
  H   2.10783888934251     11.76774457968377      3.78500749786564
  C   1.06000890446176     12.22102307441511      5.63377625145644
  H   1.75780392683921     12.99344822541501      5.94919040214189
  C   -0.04414826694342     11.89074603224338      6.42803835383708
  H   -0.23158300928287     12.39247151571480      7.37367785709947
  C   -0.91720815607657     10.89020589727097      5.98311740202048
  H   -1.78754948259217     10.59481840123237      6.56415035034266
  C   -3.97209867952452      7.11390892166340      2.69560741230469
  O   -5.42508897215609      8.84035951612797      7.56111504142517
  N   -3.43625264753932      8.20804895034144      6.59568843098861
  H   -2.59817237290313      7.61192583900616      6.57843271889173
  N   -3.50809434684281      8.89858204903844      5.43928283853654
  N   -3.16654245509518     10.11619992053868      3.13432122307819
  O   -1.19448132559408      7.40273581872854      5.32785072824497
  C   -2.70150712539449      6.85159426520156      9.02729696884580
  H   -1.87583379721674      7.10231079055081      8.36185130163038
  C   -2.44278854421543      6.05990365107027     10.14969303593927
  H   -1.43534717153314      5.68941435130482     10.32823634602530
  C   -3.47558382183499      5.75130482388952     11.04666317903428
  H   -3.26956441445662      5.13172176102542     11.91744628428851
  C   -4.77029954063255      6.24487298239785     10.82769940983440
  H   -5.57025322523302      6.00876025076475     11.52643859716261
  C   -5.03451171170289      7.04057507770118      9.71170513272803
  H   -6.02892493030889      7.43765788104350      9.52264871417946
  C   -4.00450989346246      7.34127643089063      8.79893889151531
  C   -4.37758638236202      8.19170663262573      7.63816879428606
  C   -4.48400421244442      9.69347102093956      5.09429780106421
  H   -5.35825001605885      9.84493257412408      5.72053471356163
  C   -4.32425625050929     10.36196139656411      3.81071945276979
  C   -5.31211886732181     11.21544606977545      3.29276830691499
  H   -6.22431279609808     11.38612030600618      3.85965390026678
  C   -5.10193825693274     11.82251093822530      2.05264564748498
  H   -5.85451960858645     12.48464392675916      1.63051420185473
  C   -3.91229625733882     11.56187282972663      1.36175697616136
  H   -3.70861277071019     12.01079950757187      0.39317588091886
  C   -2.97402806000749     10.69998076408308      1.93983951302323
  H   -2.03981756555976     10.46800022088400      1.43529736169505
  H   -1.18244292040713      6.48921366509963      4.96990599853699
