52
Coordinates from ORCA-job BEBPEE_1_6_tpss_d4_lanl2dz_631gpol_Mn2.opt
  Mn  7.34995300910589      2.90514792233001     11.84889318402957
  Cl  8.82506504500087     -3.75592958627567      9.64149115211172
  Cl  10.12825327921817      9.18436847128381     14.44222833724164
  S   4.00430656578836      0.47597580418109     10.29302337587831
  N   7.48807546528415      4.70224302049549     10.50628716399910
  N   8.17564038980227      2.14258287605438      9.99367799533311
  N   7.45162313112427      1.07193699264910     13.13286716723667
  N   8.30099696784234      3.56831096134887     13.68544404019012
  N   5.44772941725566      2.59585098977808     11.47708909356451
  C   7.14171221456332      5.97279595208821     10.77114622040053
  C   6.96517249797801      6.93550569565966      9.76737575552099
  C   7.15455079225289      6.56243481761424      8.43271918667484
  C   7.50763725021307      5.23895403205673      8.14464153655575
  C   7.66402355135633      4.33440383493644      9.20397168574914
  C   7.99803419095024      2.93024336770910      8.97504516037534
  C   8.36039792571676      0.74813172139261      9.82852647876738
  C   9.32775610795507      0.10840280722440     10.62621348808888
  C   9.49175337076313     -1.27362617920006     10.54889101338413
  C   8.65443136142076     -2.01578777952150      9.70083495138045
  C   7.67368456156036     -1.39289839215260      8.91744047607629
  C   7.53219313272185     -0.00442894559411      8.97444775625353
  C   6.95130468545112     -0.14135426348433     12.84672233397967
  C   6.81709386565233     -1.14496794980769     13.81753146452039
  C   7.21447961188879     -0.87645779413638     15.13140265641265
  C   7.72337175107834      0.39117824976372     15.44053999552970
  C   7.82018980735760      1.34345895217810     14.41619012642619
  C   8.31038954299113      2.69734592650560     14.65449267270184
  C   8.74139618828008      4.89897378089474     13.91112614357915
  C   8.33604118844403      5.63238963725625     15.04220256477961
  C   8.76024727897216      6.95275419295116     15.20581075255448
  C   9.59985808223320      7.52970188358813     14.24230515648905
  C   10.01408706521205      6.80690272798493     13.11369953048174
  C   9.57059388098324      5.49535225419833     12.94290632016092
  C   4.82505817018317      1.69259699349499     10.96979411186740
  H   8.43769650916481      7.53365572144158     16.06557442984560
  H   6.73811236250152      0.48286413299755      8.41334644934391
  H   9.95537493657171      0.70223506848103     11.28760798705235
  H   7.01910808629590     -1.98714239207123      8.28596735013687
  H   7.65570250740341      4.90624667078794      7.11950975764017
  H   8.08663004155755      2.56695559700301      7.94662173206320
  H   10.24996330226043     -1.77737264317087     11.14221174726852
  H   8.69412876786241      2.95623436172216     15.64606120356823
  H   7.65721065116621      5.18662714425636     15.76707776565993
  H   6.64484672474825     -0.30803045498134     11.81686994888301
  H   6.40806746344213     -2.11200058452733     13.53714182928242
  H   7.12343274214467     -1.63553296709824     15.90487878071787
  H   8.03033138236302      0.64438219659281     16.45320399411336
  H   7.00157015141885      6.22228648709157     11.82018611818493
  H   6.68114564991125      7.94977890057185     10.03557198478480
  H   7.02362806681466      7.28433787907698      7.63000384453852
  H   10.67317958020372      7.26854074966496     12.38342528930142
  H   9.88506972756784      4.91774115671520     12.07606073931905
