52
Coordinates from ORCA-job BEBPEE_1_2_tpss_d4_lanl2dz_631gpol_Mn2.opt
  Mn  6.87336604285844      2.85123729426606     11.89163348734875
  Cl  9.64871939305571     -3.42923593748767     10.55345875751808
  Cl  10.54929109640214      8.80303120214399     13.48524179416217
  S   3.80427077363656      1.56494572121711      8.76780190310118
  N   6.95912500263008      4.53827395100820     10.88477567950806
  N   8.03937457879117      2.29714042759592     10.51781075884459
  N   6.84749994244622      1.20334663745976     12.98981366498172
  N   8.18114945126661      3.34227700238960     13.27074975899096
  N   5.32200355737651      2.40321464266786     10.98453225451645
  C   6.45743627010575      5.74022311388165     11.24024991881247
  C   6.51934702301945      6.84616915261742     10.39496604948809
  C   7.09988256744515      6.70583794961118      9.12122725499166
  C   7.61982816540665      5.47015585398590      8.74228528722721
  C   7.55193057110795      4.39874845257015      9.64975992354516
  C   8.11634048939359      3.09372088894808      9.46408251060744
  C   8.49109870921451      0.94594548519666     10.46050453300159
  C   9.43962787434587      0.49746005560372     11.39303242684532
  C   9.80951370561560     -0.84687349456612     11.41113609154810
  C   9.21128047982021     -1.73509677648070     10.50419135902614
  C   8.26759394616674     -1.29384521517984      9.56799359721349
  C   7.90539066627754      0.05644321950315      9.54550134929280
  C   6.16027945195960      0.07021277154199     12.71655158493288
  C   6.26409684225597     -1.07078332671021     13.51248791776962
  C   7.08911806230237     -1.05270862024572     14.64879414197060
  C   7.79258887701824      0.11313134794180     14.95022353950984
  C   7.66295593781337      1.22353973025859     14.10112682765271
  C   8.36051037938503      2.46907325425620     14.24623243104806
  C   8.78473997628044      4.63219373265804     13.36003305104873
  C   8.55710888953810      5.45115220288457     14.47843260042280
  C   9.10269987550031      6.73774471629897     14.52149108310353
  C   9.87877098077562      7.18788537549683     13.44579148449733
  C   10.12385212881135      6.36972053026854     12.33183701674734
  C   9.56664487439317      5.09270855558135     12.28741352542869
  C   4.67839623898872      2.06053202095187     10.01885213951177
  H   8.92191426977019      7.38716414336734     15.37381352020546
  H   7.14553698691150      0.41101038008629      8.85170179344359
  H   9.88702131163989      1.20357183497283     12.08825411414147
  H   7.81487458428230     -1.99757630868657      8.87475451134222
  H   8.08036223502756      5.32282033946961      7.76835055371012
  H   8.61872481932225      2.77972448002771      8.55094034263600
  H   10.55131738658395     -1.20883252108085     12.11793543657806
  H   9.02700079514492      2.67809238058248     15.08286817271765
  H   7.92949233646418      5.09532169387847     15.29373761944406
  H   5.52780263662029      0.10418074876030     11.83561724142961
  H   5.70101887689480     -1.95976561426967     13.24143065613251
  H   7.17933358370347     -1.93161649384942     15.28237186640806
  H   8.44394165658916      0.17545255738921     15.81895900964159
  H   5.99758433552576      5.79594119697597     12.22400948686405
  H   6.10503511847656      7.79564152119768     10.72239193012579
  H   7.14124588245605      7.55186023747922      8.43947407557842
  H   10.74179106328446      6.73360794305974     11.51548021705199
  H   9.74246929989711      4.44017956250448     11.43619374833271
