53
Coordinates from ORCA-job BEBPEE-oxo_1_2_tpss_d4_lanl2dz_631gpol_Mn2.opt
  Mn  6.62316316000339      2.96407492734682     12.10788401080690
  Cl  9.69068940808031     -3.39304938855817     10.47992402473755
  Cl  10.83465287478300      8.68307319904677     13.42414000427722
  S   4.82064680367419      2.08522609978547      8.12300769619331
  N   6.75861400457846      4.56771504668887     10.91857092501460
  N   8.03082690336828      2.31636054283853     10.60662236296498
  N   6.70102243737321      1.24131402661468     13.11481951879331
  N   8.22228306557994      3.34251032401113     13.30963639356099
  N   5.37843042882990      2.22514303927191     10.87893347013128
  O   5.72165411135855      3.76991885252485     13.17360474476259
  C   6.15902836728221      5.74269577288854     11.18134650505438
  C   6.19483480047317      6.80800698536758     10.27486423153144
  C   6.85664973460767      6.64939570829410      9.05136284763285
  C   7.47594639881080      5.42720820435753      8.77303426849616
  C   7.41680052574776      4.40684056049481      9.72979207894922
  C   8.05388974591455      3.11017931413104      9.57610812253113
  C   8.48974717583817      0.97752762466014     10.51503866801205
  C   9.36286740485672      0.48276793830193     11.49904221176314
  C   9.74973994594877     -0.85648041919103     11.47701463635361
  C   9.23776045157265     -1.70243833447297     10.48128142945527
  C   8.36900106811249     -1.21928119699147      9.49478709587332
  C   7.99880940668660      0.12820958872802      9.50787814824717
  C   5.97752039564528      0.13762786626586     12.86592735198042
  C   6.11522473126205     -1.02146616616157     13.64150932270172
  C   7.01477670401105     -1.02946109401289     14.71263695550594
  C   7.76619319712617      0.12220917164826     14.97660520141977
  C   7.59383995478208      1.23826681971240     14.15092563052729
  C   8.37549380123735      2.45734838547374     14.25075919957405
  C   8.88029870006114      4.59832148159204     13.36223356869586
  C   8.79109299145926      5.39534650543768     14.51701823862293
  C   9.39298026012359      6.65561879476839     14.53820830594592
  C   10.08727989379580      7.10307589002010     13.40626612378789
  C   10.18738932988309      6.30896870708392     12.25323376129285
  C   9.57120889776932      5.05919765669492     12.22901451989779
  C   5.12027209326847      2.18521812242543      9.70131054312656
  H   9.31538063652260      7.28936414127115     15.41737393012575
  H   7.29364100475318      0.50959166222404      8.77133972941363
  H   9.76028382996221      1.15639987806783     12.25349212781731
  H   7.98044000930821     -1.88917050125312      8.73240942651542
  H   7.99524401080256      5.25495787886863      7.83333903152383
  H   8.53309503575350      2.82971929237574      8.63540458631443
  H   10.44211217395648     -1.24644248783815     12.21833622692334
  H   9.09359474793922      2.60251729923435     15.06094188503063
  H   8.21110043150367      5.04952717912525     15.37022481489613
  H   5.28584296053692      0.21128051204880     12.03182825629873
  H   5.51468698811797     -1.89555927066334     13.40456420467357
  H   7.13134971120996     -1.91545999455407     15.33218325233064
  H   8.48063897411199      0.15750963511212     15.79572836439866
  H   5.64031161625098      5.79078450784510     12.13505588201931
  H   5.69725066344064      7.74024920666457     10.52871736132114
  H   6.88526333200815      7.45930241999331      8.32646275350076
  H   10.74401407471663      6.66891559712136     11.39222644208230
  H   9.65322062519869      4.42192248726878     11.35392960659159
