58
Coordinates from ORCA-job BEBPEE-CH3OH_1_4_tpss_d4_lanl2dz_631gpol_Mn2.opt
  Mn  6.91059796819299      2.69191996683213     12.03723281126573
  Cl  9.72070386489456     -3.57818161417128      9.72266775588830
  Cl  10.52207822178358      8.72446190093643     12.85799808743648
  S   4.93547504010568      2.11374409366956      8.20272943709903
  N   7.00522457818589      4.43192313246131     10.89233964955343
  N   8.20257509857877      2.13264876398891     10.30014974935061
  N   6.95603931376765      1.07458307616253     13.18597344649517
  N   8.26155549065335      3.23267739545070     13.31571379984672
  N   5.38987245223567      2.07526967484752     10.98309957625472
  O   5.18595199561236      3.73026465762749     13.23864606303269
  C   6.52940640960052      5.62715276892127     11.28936272925712
  C   6.61825086113120      6.76647480232120     10.48377343028619
  C   7.20402330535318      6.65741020129695      9.21699273098799
  C   7.68912232025363      5.41516963592224      8.79796529040504
  C   7.58990223706005      4.31749283669149      9.66249431277756
  C   8.12993916647592      3.00117109021016      9.33656935044793
  C   8.58863955737823      0.79538171860657     10.09459727529132
  C   9.26574631100044      0.14994743831855     11.14820041618448
  C   9.63323053973253     -1.18823961605413     11.03004915971924
  C   9.29207846674173     -1.88785036286913      9.86213391670056
  C   8.60055983196709     -1.26449328901264      8.81277698624664
  C   8.25278980305872      0.08199459894574      8.92662708227559
  C   6.26711287559453     -0.07592078041489     12.96941765682502
  C   6.40194227977242     -1.18056736461584     13.79966045532451
  C   7.27205862445315     -1.11078286450884     14.91149314172485
  C   7.98327007051882      0.05798115955773     15.14618297458126
  C   7.82511961278939      1.15098417246033     14.26648374006563
  C   8.51937037236623      2.38796465496661     14.32375797979707
  C   8.87195582263008      4.52017637961878     13.27368575552724
  C   8.55688447991421      5.49151498555479     14.23693138731844
  C   9.07295034912468      6.78602327080358     14.11784094785371
  C   9.90130073053200      7.09503790141199     13.03163615339295
  C   10.24222855738917      6.12529731737323     12.07755539986050
  C   9.72337354667170      4.83639002861662     12.20162500081603
  C   5.17801732539902      2.08258661082385      9.79067690886762
  H   8.82881559387989      7.54914923729699     14.85207808662775
  H   7.67323751177925      0.56226527467930      8.14068369280499
  H   9.51697251942493      0.71700189931574     12.04159137349595
  H   8.32861553901484     -1.83274336041751      7.92739342835473
  H   8.14990135014742      5.28886111869413      7.82102998383065
  H   8.47425834583115      2.79647808010325      8.31923751161121
  H   10.17114976195109     -1.69134944588027     11.82891879571138
  H   9.24956225024980      2.63614026068042     15.09161105301976
  H   7.89033510866588      5.24132159469271     15.05999009844713
  H   5.60805528991908     -0.06717020200139     12.10608500958498
  H   5.83540184001775     -2.08271847714365     13.58594234097373
  H   7.38503380482972     -1.96525330972327     15.57464020104857
  H   8.66730779368705      0.14753047596093     15.98703500585377
  H   6.06555889886765      5.64364780352811     12.27132929098992
  H   6.22544705195654      7.71273734107687     10.84555459877386
  H   7.28016533222199      7.52475947938912      8.56534884854353
  H   10.90494844191123      6.38054616608586     11.25496542064787
  H   9.96854146249393      4.06618044112347     11.47404134077019
  C   4.91873870683682      3.33582561767932     14.60720425907469
  H   4.03574834018865      3.86440578868971     14.98545002620464
  H   5.79976465950598      3.62931631934842     15.18301650602717
  H   4.77588803694740      2.25091570673932     14.68444038043700
  H   4.47143487875203      3.37956384733063     12.66286218840795
