58
Coordinates from ORCA-job BEBPEE-CH3OH_1_2_tpss_d4_lanl2dz_631gpol_Mn2.opt
  Mn  6.89257378458345      2.82005197935743     11.89965374334230
  Cl  9.82515753387558     -3.45118042014598     10.41778119476955
  Cl  10.79308839435025      8.63606894573728     13.35050878328614
  S   4.62633610795315      1.81183790267639      8.16456800776522
  N   6.95265040323060      4.47433251622060     10.83834430486438
  N   8.03919648638731      2.22597613198218     10.46086521034469
  N   6.90065898899400      1.14059556895227     12.93955287856562
  N   8.27879839958999      3.23894690038407     13.20664390435833
  N   5.33607449178367      2.26894649589566     10.85496022153017
  O   5.39863797524823      3.65839111744467     13.07188371358356
  C   6.47871401926490      5.69106414185788     11.18756351271052
  C   6.51288561732568      6.77620624063046     10.31373925829500
  C   7.03663019220561      6.60733206487215      9.02007251270762
  C   7.53301466558045      5.35900601378315      8.65044171792274
  C   7.49556602416755      4.31006765899250      9.58345548446930
  C   8.06230361237819      3.00398036026859      9.39747083762444
  C   8.52152825808346      0.88730446775987     10.38971758053546
  C   9.46739955953943      0.44957933097610     11.33064189123623
  C   9.88310625405394     -0.88145726189419     11.32866113854629
  C   9.33189318095364     -1.77008485520658     10.39328680893304
  C   8.39316566642920     -1.34061587213948      9.44772230205534
  C   7.98794396458438     -0.00218750166293      9.44338852576400
  C   6.21181032455587      0.01362935781510     12.63957460108133
  C   6.35407593904665     -1.16011188802405     13.37763798467496
  C   7.22317199220079     -1.18580047473451     14.48288870584103
  C   7.93576522537462     -0.03270606883309     14.80514889215991
  C   7.77001171727401      1.11393789934799     14.00988576862385
  C   8.48965855401890      2.34487656255208     14.15733712369166
  C   8.91362694706490      4.51188413253622     13.27660681475168
  C   8.80655623596753      5.30753168193455     14.42952780633044
  C   9.38651351805845      6.57901614621834     14.45667185077154
  C   10.07858090286425      7.03891417026922     13.32906893591049
  C   10.20433177566544      6.24499893869999     12.17882021523400
  C   9.61221253779184      4.98342446362981     12.15246889828903
  C   5.03377855612870      2.08845771270978      9.69661955582646
  H   9.29688253968360      7.20947552013785     15.33715238001692
  H   7.23170128484254      0.34074463587156      8.73930264196162
  H   9.88267853722128      1.15686546413238     12.04404247318871
  H   7.97744186512631     -2.04382706110913      8.73106089455169
  H   7.95375343989373      5.18392645051435      7.66324715136532
  H   8.52895154590103      2.68707701469187      8.46597652083753
  H   10.62501667561957     -1.23201128596761     12.04110939572392
  H   9.20613968251351      2.52029775222856     14.95963709397608
  H   8.24560067822147      4.94589813161474     15.28958504026699
  H   5.54768610057145      0.08940123806710     11.78383116593292
  H   5.78789708545972     -2.04166469422355     13.08895119412035
  H   7.34310941379628     -2.09199471571418     15.07166508777344
  H   8.62870360548754     -0.00831763056258     15.64321115763894
  H   6.06310943176642      5.76349948778507     12.18815329757825
  H   6.12268112027067      7.73665089442625     10.63992593350518
  H   7.05626715386917      7.43820469824725      8.31908073581737
  H   10.75887002262534      6.61488808684846     11.32069908983748
  H   9.69981540872625      4.34841110844869     11.27523354836069
  C   5.07963807480178      3.21883319935930     14.42107163625369
  H   4.22305309736753      3.79584003117848     14.78481571547794
  H   5.96076730737475      3.43511870522810     15.02810426185111
  H   4.86225284910186      2.14569145396221     14.43908428025561
  H   4.67479527318306      3.37979695397113     12.45736861731110
