33
Coordinates from ORCA-job CAPZAW-OH_0_1_tpss_d4_lanl2dz_631gpol_Fe3.opt
  Fe  -0.30353713321909      5.47331782668664      9.48594857202783
  O   -1.24362475478846      6.87504285771777      8.93288798238973
  O   0.45688919570492      6.27863759558574     10.99738716283369
  O   0.10694700810598      6.97434435030775     13.11221444675837
  O   -1.24238961026447      2.15028111774840      7.58696632112630
  O   -1.11046854467122      4.28062845786611      8.31301502204426
  O   1.18529578665019      5.89943990373462      8.48296017650056
  O   3.42448509237182      5.61105940950732      8.43632111034846
  C   -0.29942826151916      6.46296269757430     12.07923089420801
  N   -1.78548517121252      4.94732191459896     10.81382433132509
  C   -1.73656542426683      5.98357819696305     11.88365643465552
  H   -2.17024597508253      5.61704526480163     12.82390322292465
  H   -2.32228159612166      6.84025094929152     11.52967031979771
  C   2.16920565486261      4.35887308753853     10.08804787332897
  H   2.90166758854958      3.54686156956835     10.00601141286614
  H   2.32564537911413      4.90833488747862     11.02027424173510
  C   2.33035236775037      5.35110365941502      8.91041902941467
  C   -0.68219533165200      3.02226593421251      8.23453904331059
  C   0.17038085962269      3.45389538180435     11.37988475949403
  H   0.59158473162726      4.11010792423924     12.14579638895862
  H   0.43156226859596      2.41556153663096     11.63409198909077
  N   0.76866580891744      3.83920202257865     10.06657773955650
  C   -3.14662989715723      4.89789368963181     10.20759982766994
  H   -3.15301101689887      4.14799555545690      9.41408214973095
  H   -3.34827747116222      5.87859422324943      9.76836265025181
  H   -3.89398691730117      4.65793062835909     10.97856146013225
  C   -1.36026099260050      3.58910160034609     11.29990760933810
  H   -1.76314465990377      2.85944587175498     10.58833292555200
  H   -1.80924891317749      3.38347684333133     12.28329124795946
  C   0.60638340826654      2.78599056099920      9.02265051434730
  H   0.62625509069011      1.78153511632384      9.46358313245352
  H   1.44274343833024      2.86665083308800      8.31770503977528
  H   -0.61952200816063      7.40980853160897      8.38836496809306
