31
Coordinates from ORCA-job CAPZAW_0_2_tpss_d4_lanl2dz_631gpol_Fe3.opt
  Fe  -0.12508778562372      5.44102251706901      9.49848872981088
  O   0.40440611934322      6.54849979709251     10.90769064351163
  O   0.13468137846754      7.00811502527904     13.11339035647752
  O   -1.30808346403009      2.27507596446236      7.60788845104623
  O   -0.97551887861675      4.44273473352467      8.18692859465851
  O   1.38075005361565      5.84293479755549      8.53210934495528
  O   3.60380949323685      5.39972673855655      8.51656392984670
  C   -0.26309058739639      6.54351414305148     12.05350679241052
  N   -1.70734176279550      4.96798931867334     10.76908279525076
  C   -1.67018046280432      5.94530940088754     11.90267558226956
  H   -2.01585326807941      5.48561456595440     12.83759599072018
  H   -2.35013095762446      6.77020548703814     11.65609186962259
  C   2.21723840447029      4.30993779063380     10.18296685201462
  H   2.89850753691171      3.45077568284840     10.19833084227707
  H   2.32749736661209      4.89754988592331     11.10072382074816
  C   2.48575590510005      5.23717250656633      8.97667206812615
  C   -0.68065573240288      3.14677893965596      8.19455537310699
  C   0.15820064595781      3.46001436756118     11.38860406475183
  H   0.53710180995739      4.13492735412623     12.16358143149536
  H   0.44589831445501      2.43103474868314     11.64745353346187
  N   0.78364460286433      3.86444961062075     10.09215322575512
  C   -3.05349735819164      4.96401197919090     10.12426306588402
  H   -3.04364026774490      4.27143429992538      9.27961938830160
  H   -3.25995661499317      5.97266767828065      9.75207748537507
  H   -3.82401584858562      4.67747518709581     10.85506521641260
  C   -1.35809194381717      3.58379813953678     11.23502412467519
  H   -1.72336213754069      2.87876587665619     10.47913526685803
  H   -1.86551824628235      3.35799860614766     12.18445410273499
  C   0.58803429496558      2.83361730883678      9.00701962797632
  H   0.55736621457749      1.82594697469750      9.43747039976187
  H   1.44623317599406      2.89890057386857      8.32781702970238
