37
Coordinates from ORCA-job CAPZAW-CH3OH_0_6_tpss_d4_lanl2dz_631gpol_Fe3.opt
  Fe  -0.07574773593042      5.71229724167343      9.73634158895714
  O   -0.72402843856949      7.55513903181078      8.88831075955849
  O   0.25180377172723      6.54365671497433     11.44042494422350
  O   0.16915911867237      6.29702244931264     13.69416470579873
  O   -0.99956703060284      2.62360386859430      7.34283547115069
  O   -0.91513344028793      4.65450812677946      8.34716493859952
  O   1.70947222748140      5.97865505375126      9.01676228682367
  O   3.91361553540301      5.48517309132283      9.24703626158217
  C   -0.30058764710086      6.13424411904722     12.57443359818310
  N   -1.72922284215088      4.74494978502703     11.05729169559049
  C   -1.66149554131814      5.43962542212132     12.36854266425122
  H   -1.86584802559269      4.75667132495879     13.20516231214554
  H   -2.42842836620601      6.22484653341627     12.38018077887850
  C   2.30096673634695      4.17794511669245     10.49097921437206
  H   2.98805228122286      3.32295080500162     10.42987378377777
  H   2.34285084502122      4.60084730363954     11.50293568409087
  C   2.73375287007756      5.28833027297733      9.50219282094271
  C   -0.49644899219754      3.41525191037021      8.13192576253764
  C   0.17916752432809      3.17733840574759     11.35476787151722
  H   0.50126957223795      3.69102694534668     12.26882825972864
  H   0.44571886124363      2.11213915851164     11.45431770757721
  N   0.89444524710578      3.79374228230446     10.21068690679584
  C   -3.06432253942667      4.87806260415831     10.42190704239846
  H   -3.02530362343132      4.42128854656350      9.42933153451927
  H   -3.29209675778723      5.94413060550424     10.31000962541172
  H   -3.84847927921751      4.40155382725279     11.03294619484961
  C   -1.33499799001219      3.31588123607961     11.16756438363275
  H   -1.65385129444440      2.80909468933833     10.24960670381769
  H   -1.85758820363077      2.83515039143734     12.01200283222567
  C   0.75516601565880      3.01478098131815      8.94816233193851
  H   0.74151731992729      1.93457812173963      9.14883509410287
  H   1.62754433042639      3.23441791130910      8.32046325887524
  C   -0.41808829019367      7.68908210534423      7.46119862091044
  H   -0.78514117264493      8.65937865934536      7.10970320108359
  H   0.66011909321010      7.57934833606522      7.30544505810754
  H   -0.95558488664929      6.87055376506817      6.97981336864787
  H   -0.21200925269584      8.22602325609439      9.38872073239509
