33
Coordinates from ORCA-job CAPZAW-OH_0_3_tpss_d4_lanl2dz_631gpol_Fe3.opt
  Fe  -0.29459603927626      5.47451323666677      9.48956812867975
  O   -1.24932908572876      6.89088190771003      8.97397119715680
  O   0.44998861686989      6.30698732536541     11.00197829505430
  O   0.09558695441851      6.93488330498782     13.13846908013049
  O   -1.31495374170229      2.16547303337246      7.65411881705284
  O   -1.08050179016558      4.32294724556024      8.26656495433176
  O   1.19397354811046      5.92071382915511      8.49596488907858
  O   3.42345250481979      5.58511255708006      8.41177679418220
  C   -0.30677156369851      6.45727300387109     12.08802360430690
  N   -1.77380477670863      4.93472354099458     10.81024663659512
  C   -1.74349318913107      5.98381448476771     11.87021230508457
  H   -2.20038852132630      5.62778295663734     12.80305716913614
  H   -2.31467522281238      6.83797303578636     11.48807411993158
  C   2.17208080265132      4.35545701300081     10.08393804831923
  H   2.90423986160704      3.54285675471289     10.00539520941231
  H   2.32817056807328      4.91054143969888     11.01351251173243
  C   2.33385826216537      5.34358465117737      8.90417499409693
  C   -0.70672066597490      3.04291401317011      8.24844716213466
  C   0.18288700592483      3.45584699401437     11.38825984633506
  H   0.60240298458859      4.12038315679641     12.14799683976962
  H   0.45247619760926      2.42078800742555     11.64694699199183
  N   0.77100956798371      3.83831532873939     10.07024975738000
  C   -3.12644976312519      4.87883192622946     10.18298170931159
  H   -3.12789254190606      4.11001293041805      9.40772315948628
  H   -3.31263700143170      5.85075311118537      9.71816799174724
  H   -3.88467986858321      4.66104921581358     10.94964143831956
  C   -1.34759309143541      3.58260562954687     11.31088104214417
  H   -1.74872260792873      2.84394012348019     10.60720594644804
  H   -1.79567515840455      3.38696132014648     12.29639164073342
  C   0.58784722545947      2.78914752602431      9.02450084687122
  H   0.60029645404268      1.78368767279848      9.46303412386365
  H   1.41917512814759      2.86442308559823      8.31285755536651
  H   -0.64080105313223      7.43336063806792      8.42173719381447
