37
Coordinates from ORCA-job CAPZAW-CH3OH_0_4_tpss_d4_lanl2dz_631gpol_Fe3.opt
  Fe  0.00629918576456      5.53588314091309      9.81832542991441
  O   -0.90142720043295      7.50612902539265      9.19398765667099
  O   0.54024823445875      6.31132479654832     11.43602999427476
  O   0.15879856202388      6.38886013096093     13.66636416625710
  O   -0.92312971412553      2.64242636174381      7.29185919587771
  O   -0.70588102016168      4.62263430190496      8.35315909462495
  O   1.64241262900379      5.97063286871734      9.01232248524365
  O   3.83348947973348      5.44927401456491      9.07080304411658
  C   -0.20827013540825      6.14037608512125     12.52792753183923
  N   -1.61649191530131      4.85631356679652     10.93322718127863
  C   -1.62214131452309      5.64496050822749     12.20020284340865
  H   -2.04758570069687      5.06810017742458     13.03215446379902
  H   -2.24829164560701      6.53052253147012     12.03553401673173
  C   2.35396572440151      4.10104314115802     10.42876145601335
  H   3.09683816465032      3.29905689856735     10.31787926222962
  H   2.42991814418004      4.52390642341019     11.43774678237017
  C   2.68022660214569      5.24041372361991      9.42431759102194
  C   -0.37889118950032      3.35088576291813      8.12888385299892
  C   0.20469620179006      3.15384989691714     11.40114081797186
  H   0.56660027722979      3.69617446684547     12.28215709025864
  H   0.35514958226993      2.07538832135523     11.58204738309642
  N   0.96529754079482      3.62837389011007     10.22852381543687
  C   -2.91726913443831      4.99635695270051     10.21971316344821
  H   -2.86120292310165      4.44864601115267      9.27586895452941
  H   -3.06891439915783      6.05838677373085     10.00495739776879
  H   -3.74103053488213      4.61358405994310     10.84153239887131
  C   -1.30023931558169      3.40669524528712     11.18209252018051
  H   -1.64454015051719      2.85108632630447     10.30219312921602
  H   -1.87372335124793      3.04865379590972     12.05110135544713
  C   0.77524282588871      2.82005734789466      9.00511586699402
  H   0.59791833511244      1.76079728468741      9.23993596339344
  H   1.69113358983093      2.87794411876192      8.40334961291673
  C   -0.77110147381933      7.68978682542369      7.75239416046692
  H   -1.08831649688530      8.70433384168062      7.48069642585943
  H   0.26130684228496      7.49992450843694      7.43830667555111
  H   -1.43344624320142      6.94830394066168      7.30251786440445
  H   -0.23699806297386      8.08220293273673      9.62773935551657
