54
Coordinates from ORCA-job DEVNEY-oxo_0_3_tpss_d4_lanl2dz_631gpol_Mn3.opt
  Mn  8.90311411314741      4.18456431077037      1.76714718670929
  Cl  6.96849422071504      3.00084571574711      2.76249008722862
  O   5.68627342615226      6.75131220436081      0.38402935041064
  O   7.74981304148860      5.57157853119480      1.41451984045500
  O   8.53201019047621      3.32827289545466      0.15773643387478
  O   8.27287109575461      3.17345399725434     -2.41950701828714
  O   10.32395112220552      4.79238807557847      1.22591260068746
  N   9.15737183582389      4.83606965230954      3.61977455800463
  N   9.90879923845609      2.62956227905642      2.44570744311112
  C   4.51756915205421      6.87813864072156     -1.67799968581170
  H   5.42275694134095      7.23508004346918     -2.18383519190380
  H   3.63885915525361      7.28328411381620     -2.19693507592367
  H   4.49374932177095      5.78373680303468     -1.73802331179039
  C   4.51330718281392      7.32447792205851     -0.22271657283859
  H   4.55450897909363      8.42214392556264     -0.13557389560016
  H   3.61779184782417      6.96517322151450      0.30781332367770
  C   5.87613038876967      6.94667163619772      1.71207295136358
  C   5.07621213833031      7.73195781355560      2.54419242655282
  H   4.20841894319606      8.24683257972407      2.13976091613908
  C   5.37941586465085      7.85959165890246      3.91601683300645
  H   4.74173308098128      8.47593060777267      4.54624059701212
  C   6.47580130050996      7.20216321926185      4.45962971638244
  H   6.70374029565911      7.28975974885239      5.52121529371648
  C   7.29844929704627      6.38895904420689      3.64579532142653
  C   7.01813161696846      6.25872716381011      2.24994723574002
  C   8.40333150058654      5.69099148513091      4.24155402365811
  H   8.59787035827375      5.87914490135151      5.30381996325330
  C   10.21496381677513      4.09565464295801      4.30447566835319
  H   11.18476991941326      4.45960723307234      3.93726305015063
  H   10.15485340826668      4.23174512265391      5.39344688528555
  C   10.03698975301622      2.61064756610378      3.91613288540437
  H   9.05648392538024      2.28441919737016      4.29044145916460
  C   11.15496210241400      1.72341067342287      4.46526537593309
  H   10.97365277104873      0.66496794226967      4.24002992459267
  H   11.18971998434026      1.82388893985640      5.55758393468812
  H   12.13531417456087      2.01117290146749      4.06068525153953
  C   10.50959630278142      1.79497559493452      1.65212996733410
  H   11.15175324099595      1.02622357036542      2.09108487186875
  C   10.38927567152213      1.77970273116418      0.22026905743974
  C   11.22025836573516      0.90040756708691     -0.52148421785131
  H   11.96771974179216      0.31033798886571      0.00809203836552
  C   11.08829943162991      0.79931079547071     -1.89677455024196
  H   11.73724061446125      0.13614358641207     -2.46508496460398
  C   10.10419422726389      1.55331914965400     -2.57792086963616
  H   10.01473476230533      1.45972351341416     -3.65746432436188
  C   9.25635626193761      2.40701975927032     -1.87680023824054
  C   9.38459317412313      2.55034257657820     -0.45006004766272
  C   8.07537436396524      3.10082591711504     -3.84142733118726
  H   7.84359744439159      2.06231389540103     -4.12790708792162
  H   9.00136827450695      3.40422902089444     -4.35617082260154
  C   6.92294591374693      4.04063209969328     -4.16820096513804
  H   6.01393694680631      3.72461711596780     -3.64254430317167
  H   6.72783661003040      4.03517250966235     -5.24871138238414
  H   7.16723314744529      5.06327619820497     -3.85663461537182
