59
Coordinates from ORCA-job DEVNEY-CH3OH_0_5_tpss_d4_lanl2dz_631gpol_Mn3.opt
  Mn  8.42788655232675      3.73660682103736      2.02883783238242
  Cl  6.55921072360238      2.53120678454408      3.04770336688799
  O   5.67748144821999      6.75525078008612      0.47476202811052
  O   7.59967672845279      5.37450164584455      1.55985468811351
  O   8.47942539595883      3.11637517712697      0.26540621838758
  O   8.38610637660892      3.02017796585839     -2.32149228049404
  O   10.30456642166427      5.31061216317455      1.30499502373573
  N   8.85374597353742      4.50913641658945      3.82304600583721
  N   9.72744669775789      2.34735756572733      2.61725287821974
  C   4.60895828493726      7.03063953908638     -1.62575614290763
  H   5.55272828011155      7.35757475578039     -2.07949376719755
  H   3.77646883381859      7.50382713611840     -2.16309026023216
  H   4.52982614425319      5.94236987399664     -1.73424444800162
  C   4.56722356344099      7.41559013731967     -0.15284232415946
  H   4.65874961423150      8.50643742361772     -0.01954451646738
  H   3.62864522827464      7.08687389551710      0.32128599979429
  C   5.80459154603985      6.87863091204743      1.82753056698291
  C   5.01110862863676      7.68162605595934      2.64796245730804
  H   4.20011241589810      8.26505125670069      2.21853414242322
  C   5.24471042370005      7.74433682159230      4.04033782620981
  H   4.61067551806853      8.37602561489001      4.65898805383521
  C   6.26955214502736      7.00635331450997      4.60657201271936
  H   6.45733742487398      7.04453075743869      5.67909516637423
  C   7.07806064144742      6.16339180474838      3.79720254829157
  C   6.85693494867874      6.09179290343215      2.39010335170368
  C   8.14661597908102      5.42849123231614      4.41416996388674
  H   8.37334534066644      5.66366434416895      5.46146836361970
  C   9.95497311486591      3.82075587764440      4.49755929990362
  H   10.90296678729345      4.24862267423804      4.13934442477527
  H   9.89074119806578      3.94160485655074      5.58874991638617
  C   9.88052721680081      2.33515935760521      4.09344444844745
  H   8.93186344478532      1.93122041558301      4.47641440582177
  C   11.06664608913461      1.53205672481836      4.63069330599329
  H   10.95902511822351      0.46060275655207      4.42047998790003
  H   11.11418408861894      1.64695673143287      5.72112029532346
  H   12.01717490533437      1.88437090641413      4.20583316444322
  C   10.34342720211228      1.50285093128576      1.83731366032490
  H   11.03352964728322      0.78448076387781      2.29022456868447
  C   10.20945637829335      1.42262341482576      0.41187060228369
  C   11.02336851451557      0.49071932127768     -0.29275329843498
  H   11.70713083769073     -0.14126286969911      0.27384140729906
  C   10.94966226410715      0.39397809316159     -1.66977750790423
  H   11.56963868075316     -0.31849845808047     -2.20977371493570
  C   10.06474844927231      1.23117560135642     -2.39168183291040
  H   10.02422546823928      1.15279216431200     -3.47566830950689
  C   9.25404393565115      2.14847731514370     -1.72804833458396
  C   9.28999435336545      2.25341039936264     -0.29706858565243
  C   8.26147128183411      2.96625754865552     -3.75130674491784
  H   7.94705682820184      1.95501374897387     -4.05601713302558
  H   9.23868617685098      3.17812112798126     -4.21624767157153
  C   7.22282984069806      4.01102465452419     -4.13685961847646
  H   6.26101085876669      3.78304558855291     -3.66216936797956
  H   7.08699944029236      4.02389515970330     -5.22630530186371
  H   7.54375691608246      5.00713673553001     -3.80824536072250
  C   10.83264306219750      5.18777451205571     -0.03015884807006
  H   11.33006574737426      6.12029722048010     -0.33801632982514
  H   11.57099807776606      4.38044371463892     -0.00085115143223
  H   10.04366232075710      4.93004515271525     -0.74831351134139
  H   9.48739047545589      5.85917475929665      1.24827838020445
