55
Coordinates from ORCA-job DEVNEY-OH_0_2_tpss_d4_lanl2dz_631gpol_Mn3.opt
  Mn  8.77240558377153      4.04374922850800      1.88014930950699
  Cl  6.92886856129194      2.86512434537604      2.75449603556847
  O   5.81408115650179      6.87329150615819      0.33949902470621
  O   7.73369929533188      5.52451307075243      1.43507415138342
  O   8.50268997618279      3.28029398034207      0.20750754169792
  O   8.16660211729557      3.08192753175659     -2.34845521913174
  O   10.30357852311415      4.86144459894192      1.36109914642112
  N   9.01566206970671      4.70303757959664      3.71414266220624
  N   9.95355683227799      2.59834970982396      2.47377966614777
  C   4.77903598992280      7.14919636491254     -1.77753523589002
  H   5.72371977341345      7.49948677859112     -2.21132619705136
  H   3.94648122814922      7.61027096765146     -2.32522255406853
  H   4.72429737927014      6.06054531052105     -1.89638047304428
  C   4.70379092239634      7.52054278995336     -0.30257717065025
  H   4.77453188256472      8.61118589488694     -0.15752437728707
  H   3.76333010893310      7.17101934656841      0.15247502643819
  C   5.91881291049769      6.98794313737707      1.69248184919401
  C   5.09153486125813      7.76081095063550      2.50638346549544
  H   4.27825998586119      8.33517085958701      2.06937078974023
  C   5.29730410138862      7.80703125430292      3.90363471821921
  H   4.64061573436770      8.41888363215443      4.51871258470367
  C   6.32615131146317      7.08086594621210      4.48096446136879
  H   6.49401084233257      7.11429541138249      5.55706402585428
  C   7.16998731407219      6.26665036261644      3.68231876742955
  C   6.98276555481448      6.21165099881123      2.26452304882707
  C   8.24629156394583      5.55879423441804      4.31728965977705
  H   8.42238926802500      5.76268639536138      5.38062079741504
  C   10.13000873562055      4.03739090710179      4.38207246372349
  H   11.06275504199181      4.50270840947702      4.03276903277095
  H   10.05637681684433      4.12904036909936      5.47530584173212
  C   10.11427694943927      2.55511512546019      3.94070193159910
  H   9.18658939860855      2.10422318348588      4.32163668900138
  C   11.33534060800773      1.78892626542221      4.45249257788664
  H   11.27790710238719      0.72277091038600      4.19882450917628
  H   11.37799096535685      1.86356631050309      5.54667427919527
  H   12.26756822312987      2.20160563518067      4.04233190320041
  C   10.63039150569814      1.85533661720213      1.64928579669318
  H   11.37882365083387      1.16375513684139      2.04878650785628
  C   10.45404863634728      1.83640919235707      0.22275028412938
  C   11.31672655768217      1.01567692633489     -0.54797051659368
  H   12.11940562305938      0.47871765099984     -0.04301343784348
  C   11.14375282002486      0.89645985739133     -1.91807908621211
  H   11.81432951204140      0.27331812075344     -2.50625188526628
  C   10.08803742687048      1.57862968350215     -2.56477964862847
  H   9.96548982786700      1.47345326709683     -3.64002351657501
  C   9.21023816855245      2.37698655612500     -1.83438124350375
  C   9.37500154338284      2.53455030961506     -0.41214196058139
  C   7.92830852928877      2.99290095822303     -3.76295591246976
  H   7.74626515484410      1.94221866478139     -4.04068918322222
  H   8.81861032614697      3.34605863975726     -4.30833580769267
  C   6.71440123038771      3.86485038467155     -4.05417644329345
  H   5.84217894472526      3.49906997719194     -3.49930670582686
  H   6.48570277773575      3.84521210606272     -5.12790948690320
  H   6.90910919329792      4.90080692190906     -3.75155282942843
  H   9.99395988167591      5.69959972586796      0.95115034209876
