87
Coordinates from ORCA-job CAKLOQ-CH3OH_0_2_tpss_d4_lanl2dz_631gpol_Co2.opt
  Co  0.08218920585230      0.07700938594163     -0.19312527972330
  S   3.06229225844349      0.18625279533240      0.93311831963180
  O   -0.45710545164609     -1.16408727125354      1.18808432258128
  N   -0.08273407594598     -1.29599351519734     -1.51840603790930
  N   0.23351527611226     -3.07709834049446      0.04070026139731
  H   0.67657854304061     -4.01122038595465      0.23179817850212
  O   2.14801254258817     -0.68887913107593      0.06490222910482
  C   0.10424330044384     -2.32370309024788      1.19637016325544
  C   0.58846264979826     -2.89702026314157      2.39764899836581
  S   -0.11750394267292     -3.63074992371588     -2.62538199286269
  S   1.82789559176859     -1.97977994876251      4.49534267467733
  O   2.90276046168790     -1.48172182940302      3.63186485121635
  O   1.34782983470344     -4.95307459199266      1.45955240287877
  N   0.44271836307727     -2.06548032191613      3.56934382271523
  C   -0.27507829339694     -1.08474617989776     -2.87533136715714
  H   -0.35080972583527     -0.05967664044240     -3.22358474003977
  O   1.50196631448654     -1.29520299910938      5.74988340389105
  C   0.02815082800983     -2.58626320177678     -1.22022484802012
  C   -0.31548162678212     -2.20560514356042     -3.65252202643724
  C   1.22899112267811     -4.17304633065897      2.45906799848199
  C   1.81739017064722     -4.61018511745813      3.76629843033230
  C   2.62925213228931     -4.14187792949307      6.03733095189629
  H   2.82056186462551     -3.41720132802868      6.82589999217523
  C   -0.85743817539706     -2.15383925042061      4.27265995518010
  H   -0.84359771538685     -1.47830895099741      5.13193273668314
  H   -1.06824000926392     -3.18199178668597      4.60243231667639
  H   -1.62158370676599     -1.82834358044854      3.55971252291136
  C   4.60382557515659     -0.77728687776293      1.08651625209425
  H   4.37437662920921     -1.62666481507812      1.73597497114978
  H   5.37639089486025     -0.15405928214955      1.55413032042932
  H   4.91314813321102     -1.11387260142730      0.08979790981531
  C   2.10999428242221     -3.70798747777116      4.81319372758986
  C   2.10161537120215     -5.97114818943120      3.96620846363330
  H   1.89519398568887     -6.65782021861597      3.14838569392979
  C   -0.48755738846135     -2.28859239380372     -5.14138685090520
  H   0.38589110974824     -2.74540813215332     -5.62804970741264
  H   -0.61568249027675     -1.27576211584625     -5.54268110649356
  H   -1.37305759040593     -2.87803123620318     -5.41748594248340
  C   2.63204815677697     -6.41383735461405      5.18150868151372
  H   2.84326758837091     -7.47261265571333      5.32477423082459
  C   3.71236341818478      1.47345111937287     -0.20171688220974
  H   2.85450074565162      2.08386655245138     -0.50061513075201
  H   4.14948995857305      0.99605534752124     -1.08707728215441
  H   4.45352220438599      2.08879418435973      0.32376053272845
  C   2.88763246225965     -5.50513935530791      6.22072032593463
  H   3.28959843275000     -5.85747587458741      7.16911173032836
  O   0.50253483863877      1.31838851717268     -1.58004932103396
  C   0.00116632414869      2.49989697360221     -1.59456802963209
  N   -0.16315107503710      3.24039895045211     -0.43088599308811
  H   -0.53438959259815      4.20528704199573     -0.63590923785894
  C   0.04374226354984      2.75256437743466      0.82761754042468
  N   0.20525601366966      1.46466352648130      1.12462159676092
  O   -2.15408223594540      0.58186708347701     -0.20212882431740
  C   0.37882466902707      1.25977556105846      2.48725412165407
  H   0.49377604475797      0.23699798796250      2.83170303003762
  C   0.36037352978066      2.37833639113440      3.26656918937405
  S   0.11999598898820      3.79768924777607      2.23861400102130
  C   0.51522741482969      2.46930119448072      4.75662426144506
  H   1.36213229761218      3.11010167690711      5.03980753232396
  H   -0.38725847886967      2.87345196439203      5.23729837363485
  H   0.70212687804311      1.46560945001033      5.15734338392125
  C   -0.36910134409500      3.12059944556135     -2.81338265888042
  N   -0.17064353755949      2.30578274204416     -3.98796381248690
  S   -1.45873176326124      2.34845937402285     -5.05227886687333
  O   -2.64604072716628      1.90471910724773     -4.32157568695109
  O   -1.04628165993708      1.68336511339368     -6.29180042890833
  C   -1.58086157579964      4.10337664846439     -5.33143043077018
  C   -1.33285683026249      4.95452949019391     -4.23094267827089
  C   -0.90312700620136      4.44319066235609     -2.89098636506476
  O   -1.04607303247462      5.20673054103291     -1.88024908272049
  C   -1.49887361164857      6.33758450057218     -4.41141614887774
  H   -1.32789914190077      6.98495694386496     -3.55426976242640
  C   -1.87228085770343      6.85045801265804     -5.65677919712295
  H   -1.99371062758823      7.92510433805887     -5.78370515159012
  C   -2.08527614836692      5.99089209105807     -6.74617167608339
  C   -1.94291729763039      4.60810091876511     -6.58459596990386
  H   -2.10518869769321      3.92092690526903     -7.41226599476596
  H   -2.36520021315292      6.39649692062912     -7.71691334938383
  C   1.19849020373673      2.30414797072355     -4.55215974836557
  H   1.21928911050630      1.64931755592413     -5.42709765618188
  H   1.52085670983809      3.31830945274900     -4.83248236302642
  H   1.85747707891603      1.90310701767950     -3.77530820513014
  C   -3.00747798127274      0.25392114236295     -1.32370530781007
  H   -4.06268444402998      0.31319278139224     -1.02268601916609
  H   -2.80616480274886      0.99686368524462     -2.09779773833722
  H   -2.78420909330344     -0.74802002750541     -1.71441153814686
  H   -2.25719680626314     -0.11652703048055      0.47950603461278
