81
Coordinates from ORCA-job CAKLOQ_0_2_tpss_d4_lanl2dz_631gpol_Co2.opt
  Co  -0.41574629091847     -0.06816308425481     -0.34677380929955
  S   2.33788984511199     -0.19125265919856      1.09915448222068
  O   -0.49396931991005     -1.33682845105552      1.08030990149890
  N   -0.35263086210881     -1.50423469891026     -1.62273127396195
  N   0.58144097214588     -3.05860645866630     -0.06691679020117
  H   1.19040706792869     -3.89475981540065      0.12481934627641
  O   1.75896997743638     -0.03606992006659     -0.32670756921618
  C   0.28057138327086     -2.36201088863291      1.09070123578315
  C   0.86533011107958     -2.82403874176014      2.30103010583605
  S   0.22490508790567     -3.78913587230470     -2.68396549184515
  S   1.78914519252957     -1.79749251155573      4.52342634294838
  O   2.85487910370659     -1.10139726191295      3.79320660430456
  O   2.05351400132010     -4.65608137533644      1.34902457127668
  N   0.51384041347962     -2.05623396459010      3.47106460037516
  C   -0.69367047005560     -1.41317421090082     -2.96452729137121
  H   -1.08942563536598     -0.46954680933504     -3.32455946067795
  O   1.24713756937315     -1.22713668193959      5.75823408827857
  C   0.14979428184110     -2.69573323911696     -1.31531418687324
  C   -0.45380596759703     -2.52695411072562     -3.71594296843667
  C   1.72664275212711     -3.96085879120604      2.36867945173652
  C   2.28928185417338     -4.34925870311317      3.69868311853713
  C   2.80184008025178     -3.87442455696445      6.05445357170049
  H   2.79261382835906     -3.17262309251589      6.88561714559507
  C   -0.80362704652310     -2.37861680078312      4.07745716340445
  H   -0.97750379579057     -1.70725574067485      4.92177047265241
  H   -0.84736965897233     -3.42589255492374      4.41049792242748
  H   -1.55537115384512     -2.20111583678856      3.30224817596921
  C   3.79791349501199     -1.26486128406662      0.87575546582477
  H   3.42507052155800     -2.26506311498628      0.63096184512140
  H   4.35787693187588     -1.30230637482423      1.81489703877247
  H   4.40415324299715     -0.87302040655265      0.05068256680656
  C   2.32351357397242     -3.46962121688061      4.80403717519829
  C   2.79510163379031     -5.64871950748490      3.87019639737799
  H   2.78539986129190     -6.31535839839786      3.01099134605846
  C   -0.68915071643335     -2.71888244821929     -5.18571108775954
  H   -1.40494712284705     -3.52891780206602     -5.38331710001857
  H   0.24237260052990     -2.95325548725231     -5.71977635099136
  H   -1.09954542459598     -1.79154182458868     -5.60349273362050
  C   3.28670606164063     -6.05914158649282      5.11248627309640
  H   3.67028550863868     -7.07093351850398      5.23320898427170
  C   3.23623957482845      1.36079034256208      1.45802827646861
  H   2.48019205559623      2.14940226669928      1.53696784284724
  H   3.93839674036781      1.58753379777227      0.64726277016757
  H   3.75168515158350      1.24196977555603      2.41785844410248
  C   3.28169116007421     -5.18020018273388      6.20731528491833
  H   3.65427446676967     -5.50995019227524      7.17544308623665
  O   -0.60052805078493      1.10079034163598     -1.79328034360172
  C   -0.76644129738880      2.37265261130467     -1.79668624026459
  N   -0.72172874016760      3.13429735019734     -0.63742689949421
  H   -0.86773858778356      4.16382128022928     -0.86186588595558
  C   -0.56625310240083      2.64391290984245      0.62029298904899
  N   -0.50227626953451      1.35125652722010      0.94555738442817
  C   -0.30928287293050      1.17204172344536      2.31449426133212
  H   -0.22162769290719      0.15498769380774      2.68165329595613
  C   -0.22161646411001      2.30828935190979      3.06222588530295
  S   -0.39744111593343      3.71625799074859      2.00612332650673
  C   -0.00941343640510      2.42780186911913      4.54334440844072
  H   0.86896974089497      3.04479365004837      4.77916387825598
  H   -0.87875409452557      2.87619853706627      5.04503273254791
  H   0.15693836955509      1.42931663068084      4.96517156802633
  C   -0.97014266193369      3.07183738630647     -3.01172988485778
  N   -0.90948154754945      2.25632367880068     -4.19766202745250
  S   -2.09835713117976      2.61857515417618     -5.32026544242820
  O   -3.39200247084661      2.45007037300403     -4.66487592133696
  O   -1.77185197573279      1.91533383086762     -6.56338022511999
  C   -1.79345068220923      4.36247067515082     -5.54084323461399
  C   -1.40895913793044      5.11067924371075     -4.40556378670493
  C   -1.16969562638067      4.48485502802678     -3.06978534155866
  O   -1.15425535075741      5.24431963358496     -2.04236962225647
  C   -1.24121856356814      6.49846700879917     -4.54645012759632
  H   -0.96427225309903      7.06835469329688     -3.66247506836714
  C   -1.42695581701064      7.11205420441319     -5.78812054275740
  H   -1.29138286723129      8.18824670572594     -5.88489416368403
  C   -1.77937842527370      6.34878871485883     -6.91246112109400
  C   -1.96627239943635      4.96717368118142     -6.79028445145062
  H   -2.24074466085740      4.35492525599521     -7.64664093203079
  H   -1.91120017703097      6.82940292996056     -7.88046421444712
  C   0.45207921449463      1.96294722873516     -4.70327991054780
  H   0.36755500551967      1.31944291465870     -5.58277803796510
  H   0.99526265503370      2.88459292866543     -4.96254549265273
  H   0.98140584979755      1.43189425819447     -3.90516579542448
