82
Coordinates from ORCA-job CAKLOQ-oxo_0_2_tpss_d4_lanl2dz_631gpol_Co2.opt
  Co  -0.18507609331110      0.04594841023290     -0.17546697598175
  S   2.75444008631219      0.70600534121409      0.19496616873529
  O   -0.62366009291272     -1.25967950452382      1.15020758713349
  N   -0.21278564640830     -1.29793938787403     -1.52656587697908
  N   0.34046337330802     -3.04570093568842     -0.00954729642448
  H   0.85667462729932     -3.94154967361089      0.18084875646449
  O   1.75668440553585     -0.47544281454917      0.18876402653437
  C   0.06724439832154     -2.34652563586914      1.15609610394461
  C   0.54317408126166     -2.89954100747072      2.36942919292232
  S   0.00557747216921     -3.57748496659704     -2.69028401958426
  S   1.55139543034177     -1.94970243927522      4.57757197790062
  O   2.63219812720097     -1.31890116338722      3.81550910169236
  O   1.54662299243584     -4.84529927746860      1.42426212591325
  N   0.24832752459023     -2.12296716988197      3.54918548748453
  C   -0.51457739860291     -1.07018065765155     -2.85575388994314
  H   -0.78137246810748     -0.06641199995527     -3.16153915221982
  O   1.07450639631198     -1.34854587268783      5.82668929731341
  C   0.06414937815313     -2.56684205102076     -1.25800736898817
  C   -0.43281950797161     -2.16648692844801     -3.66442954174193
  C   1.29252533362864     -4.11523361712764      2.43620804055873
  C   1.83212434205137     -4.54257250492221      3.76678402969966
  C   2.44208838009345     -4.08678447692445      6.10227164456057
  H   2.51277913876711     -3.37755330324769      6.92413551509013
  C   -1.09676669861262     -2.31364314594834      4.14338036337728
  H   -1.19362449673610     -1.65799007008514      5.01238263419454
  H   -1.26055016009867     -3.36056425122119      4.43804616000062
  H   -1.82163160108485     -2.02174044895653      3.37708818263970
  C   4.09762262310431      0.06316319015275      1.23957574913760
  H   3.67264798120633     -0.09982504421441      2.23600331275811
  H   4.91011071327709      0.79953908208005      1.27553082937942
  H   4.44765582973562     -0.89241307910029      0.83276157243644
  C   1.97050525338224     -3.65587723913349      4.85790900601655
  C   2.22204068438810     -5.87993712800946      3.94598254495321
  H   2.13242303880484     -6.55267687034596      3.09612851523116
  C   -0.66383857219510     -2.24269731134949     -5.14520006255679
  H   -1.50490302299746     -2.90585045918472     -5.39120060736666
  H   0.22457550203283     -2.61079631150877     -5.67766212857608
  H   -0.89747296868341     -1.23932862624124     -5.51946850430454
  C   2.70526609738752     -6.31803338438591      5.18225168754727
  H   2.99834007703406     -7.35902881813645      5.30907887439120
  C   3.59727976671799      0.59960972252551     -1.42090600326680
  H   2.83487171888359      0.83447759954772     -2.16941722832239
  H   3.97087552692578     -0.42085296235298     -1.56475994335809
  H   4.41570441884698      1.32932405208176     -1.46045835915403
  C   2.80748537153576     -5.42811130555016      6.26318040963208
  H   3.17289816492496     -5.77767672417886      7.22720885260178
  O   0.47011859658629      1.34038939388982     -1.43297560672652
  C   -0.17237737959160      2.46589020303586     -1.49283108962221
  N   -0.49499683209408      3.16278552236132     -0.33911310283167
  H   -0.96834702485432      4.07798479028266     -0.54792771228800
  C   -0.31038867954426      2.66711137660778      0.91685757924501
  N   -0.09938000398422      1.38560317030182      1.19208517984337
  O   -1.83147932155728      0.44882101264376     -0.51267201159257
  C   0.10690061525081      1.14249563197475      2.53809011090075
  H   0.25383885627983      0.11412145969161      2.85187860471121
  C   0.05361656828078      2.24399290719312      3.34280106282600
  S   -0.26018859495323      3.67528747234082      2.35160279062855
  C   0.19563669045111      2.30695482364986      4.83564789794832
  H   1.01554742562189      2.97254039818625      5.13979842866694
  H   -0.72590411606979      2.66749863873512      5.31428115399546
  H   0.41285699804048      1.30223074285720      5.21738733435571
  C   -0.48223373171538      3.07854715011414     -2.72420049889995
  N   -0.01561132198222      2.39263301580520     -3.90531618297272
  S   -1.20244817983828      2.20494964517632     -5.07602712670019
  O   -2.29805407523831      1.45461904578275     -4.46735082513983
  O   -0.55721914577876      1.73142886324985     -6.30420413328631
  C   -1.69218366285186      3.90639572375211     -5.30180568496242
  C   -1.66586915059887      4.75998354647361     -4.17633075138454
  C   -1.21945016893031      4.30654575867038     -2.82027052855341
  O   -1.54556234096034      5.01324263680810     -1.81631419713665
  C   -2.09912941901449      6.08658647230636     -4.33665388808638
  H   -2.09631618442857      6.73048900908346     -3.46018194968419
  C   -2.52291565846833      6.54874890295776     -5.58552712481408
  H   -2.85408533405612      7.58007854607220     -5.69606765147416
  C   -2.51927036051455      5.69317338220929     -6.69809798095742
  C   -2.10410490630826      4.36398043864342     -6.55771779202334
  H   -2.08997200894596      3.68392619480519     -7.40664982415147
  H   -2.84003332742355      6.05978666771239     -7.67165266516065
  C   1.32149053947940      2.81073231443975     -4.38569148706429
  H   1.59087443086703      2.20467395866388     -5.25449119873303
  H   1.34635012593783      3.87975479726213     -4.64971388965036
  H   2.02849055465947      2.62453755651020     -3.57111603070171
