82
Coordinates from ORCA-job CAKLOQ-oxo_0_4_tpss_d4_lanl2dz_631gpol_Co2.opt
  Co  -0.71238157092733      0.04909097448624     -0.03527586101903
  S   2.41708486589234      0.12427504836475     -0.01689414667692
  O   -1.18241685160565     -1.49982394272034      1.33792709491441
  N   -0.67272428613861     -1.34827367112421     -1.40534267932408
  N   -0.04513663824613     -3.11537142597486      0.09159078524132
  H   0.68625098101283     -3.86168265867893      0.23850198795257
  O   1.11371026913709     -0.56558070120040      0.47296057539131
  C   -0.32847070608397     -2.44169675180962      1.28984226936908
  C   0.40299774593389     -2.87826032075375      2.43173860388892
  S   -0.07113320034899     -3.53477249031304     -2.61797863053809
  S   1.39623041805886     -1.69895596916416      4.54422347046005
  O   2.21341433515684     -0.82347871245058      3.69894095564364
  O   1.79103645987662     -4.46852741280475      1.31582218217874
  N   0.07563329018221     -2.18591391197752      3.65155774646122
  C   -0.82672040277083     -1.08747910691247     -2.75562063315996
  H   -1.15291591159079     -0.10028512317110     -3.06486523221650
  O   0.92065873232563     -1.23250662410679      5.84984069087996
  C   -0.28838223748470     -2.59415012434469     -1.14517006910184
  C   -0.52964984196501     -2.12738020814274     -3.58797525506364
  C   1.45319881114127     -3.84204025555493      2.37864541643741
  C   2.22616570983331     -4.12818498552129      3.62756040976197
  C   2.94001842901799     -3.55767840432217      5.90820017367870
  H   2.91363358034070     -2.86234947608472      6.74445939938416
  C   -1.14552084135761     -2.62843905361853      4.36390150107534
  H   -1.28489208896470     -1.99899874034017      5.24618556180932
  H   -1.07673183492341     -3.68536369279074      4.65995997869323
  H   -1.98108492670521     -2.48579283816786      3.67157987851393
  C   3.63215593047691     -0.95388563291143      0.80491424484513
  H   3.50758144863749     -0.80087352904320      1.88216522432443
  H   4.64092558288626     -0.67198303703965      0.47930627244555
  H   3.40527050102986     -1.99675962654753      0.55446683633592
  C   2.24936954251309     -3.24791223613851      4.73194139642606
  C   2.96050670641001     -5.32264592173770      3.71721116938448
  H   2.95618983906817     -5.98775342346735      2.85669295489394
  C   -0.57380082265886     -2.15151063129651     -5.08789180702270
  H   0.39835928910197     -2.43120057708786     -5.51773550800042
  H   -0.83293397531590     -1.15015310446516     -5.45078645995765
  H   -1.32501119156129     -2.86107776786865     -5.46209385933290
  C   3.66450352766409     -5.63597484014184      4.88332524523621
  H   4.22360583174405     -6.56853016623209      4.94215169018202
  C   2.67518826907859     -0.45712286479770     -1.72991665989579
  H   1.90817193331131      0.02836364899295     -2.33984176420606
  H   2.57233361296014     -1.54781689870310     -1.76136630484490
  H   3.67810286264674     -0.15092364566055     -2.05389114241592
  C   3.64817357584241     -4.76248207027776      5.98247146391305
  H   4.18781617440442     -5.01806567812820      6.89272326958014
  O   0.36334978810170      1.36481768661957     -1.28103451900353
  C   -0.14810385214120      2.53779440704536     -1.37725306108869
  N   -0.57252852959111      3.22909780220099     -0.24177565135135
  H   -0.93827517568349      4.18580071692566     -0.47752821527712
  C   -0.53348079939799      2.72298221027215      1.02673478714952
  N   -0.53319104453093      1.42925973138178      1.32845014740504
  O   -2.21422084478359      0.52242282680663     -0.45138494290327
  C   -0.44570943578859      1.17432845131346      2.68303446257766
  H   -0.43428273132819      0.13694416836156      3.00073712452527
  C   -0.38909723145902      2.28295252087647      3.47772705168234
  S   -0.42345418956245      3.73009300734572      2.46214135756441
  C   -0.30493884922594      2.34653125396164      4.97491785797743
  H   0.55313640610347      2.94644210377789      5.30749827256862
  H   -1.21368769830248      2.78204952385831      5.41429047778611
  H   -0.17707854974315      1.33137007332627      5.36841364110115
  C   -0.29563404688613      3.19692464376313     -2.61914188638401
  N   0.24898423434028      2.49325376134099     -3.75598830881866
  S   -0.84371917735552      2.33968018477379     -5.01198024691882
  O   -2.01363006361079      1.63457678635353     -4.48696519437232
  O   -0.12980151858745      1.82973157910569     -6.18629916842113
  C   -1.25229771987861      4.05745718476382     -5.28220438928086
  C   -1.27733703629695      4.91868529637341     -4.16183801506929
  C   -0.96756291027619      4.45118481077792     -2.77147439213786
  O   -1.35304759844321      5.16889876804161     -1.79552055233765
  C   -1.63764633240554      6.26108616200269     -4.36259934016406
  H   -1.67753962026232      6.91085612723091     -3.49126357024093
  C   -1.93879786172000      6.73143148189168     -5.64385275097204
  H   -2.21358515853243      7.77547902536118     -5.78560056299623
  C   -1.88447407053692      5.86758737020546     -6.74856440815932
  C   -1.54174618858810      4.52239118793525     -6.56917091956466
  H   -1.48930630391586      3.83566013035183     -7.41127017773776
  H   -2.10935815929693      6.24008742912536     -7.74647402469484
  C   1.64062633101187      2.84763167641606     -4.11432897320346
  H   1.95316221476867      2.23749246737322     -4.96611341405188
  H   1.74210809503634      3.91634015756877     -4.36019147346113
  H   2.26418470173251      2.61680586692141     -3.24398945825247
