53
Coordinates from ORCA-job CEMGUX-OH_2_2_tpss_d4_lanl2dz_631gpol_Fe2.opt
  Fe  2.39485803081220     -0.13908075260445      5.29370776117455
  O   3.30635746244170      1.02892012937097      4.04900557203179
  O   0.66619433123027      0.39454131000260      4.44639683422925
  O   2.10044159056421      1.25900660395788      6.68614287014478
  N   4.24437095467347      2.54294676007419      5.50017701435400
  N   1.20214472226899     -0.06395495069314      2.28155798229028
  N   -0.15279992780870      1.12113165206552      7.02658073732529
  C   4.08683866724847      2.01981556744521      4.27966652625504
  C   4.85319906612853      2.60724048615570      3.16746722604381
  C   4.84008739637406      2.07097827990666      1.93532062474096
  C   0.51370922552519      0.63530570347895      3.17524093839319
  C   -0.44556518851155      1.64844090833794      2.71997336182600
  C   -0.99779394848233      2.54536145960029      3.55693770136180
  C   1.07834706582410      1.46121371690327      7.42996852367013
  C   1.22964836357367      2.08852422705295      8.75236122317631
  C   2.43525163261278      2.24691132306911      9.32600187286135
  H   4.84831032241571      3.34591045546223      5.64709156458849
  H   3.66428281648875      2.19829105229894      6.27094212104113
  H   1.91267265075321     -0.73115005401309      2.65291888733691
  H   1.11127993194352      0.12020100979579      1.28598238568510
  H   -0.27205557850187      0.75466951483283      6.07968239915796
  H   -0.96306629308498      1.26678542020000      7.62112953590068
  H   5.44182673199040      3.49682492469126      3.38942067023173
  H   5.41326237213932      2.51047011385849      1.12281455204968
  H   4.25526938619405      1.17986315512005      1.71806839782495
  H   -0.66878138901793      1.66639155199813      1.65370654306485
  H   -1.68750437547200      3.30238467494672      3.19186112217662
  H   -0.76222419919469      2.55695981650706      4.61895311346750
  H   0.31903628942090      2.40283766291934      9.26110814300110
  H   2.53751561678310      2.70182064617029     10.30805091257902
  H   3.34420887751526      1.91291312219666      8.82939728535486
  O   1.58989958837237     -1.39316357137480      6.53148571397421
  O   4.01283015335015     -0.38607515085957      6.29354266021160
  O   2.74844284060550     -1.43258377128436      3.99723280387829
  N   -0.15386836851921     -2.24199811985247      5.31174129542433
  N   5.35272499131326     -1.17781316165659      4.61162039822724
  C   0.64028988430005     -2.23852379256409      6.39740979274518
  C   0.40293086179051     -3.24506156100115      7.44184302672147
  C   1.20788248561563     -3.34101817055010      8.51555204041426
  C   5.16867686529208     -0.76087022892344      5.86396861182906
  C   6.31626588397574     -0.72392146575451      6.78489872885147
  C   6.17728015995432     -0.40334179071368      8.08287008089870
  H   -0.91940115787261     -2.90302785908200      5.21600915590019
  H   -0.06632171854797     -1.47929646963977      4.64096740916362
  H   4.50086493628959     -1.33028380797638      4.03908565420931
  H   6.25235405615220     -1.54662707735205      4.31634778530860
  H   -0.44802021954237     -3.91164367079719      7.30673936526020
  H   1.03085464052169     -4.08758919457775      9.28574925922038
  H   2.05876196819314     -2.67402727140150      8.63922430671638
  H   7.28682271472157     -0.99264236660804      6.36914184312799
  H   7.03107047523996     -0.39650963263065      8.75585691741911
  H   5.20212793798697     -0.15862832150807      8.49887539217520
  H   2.39772841595924     -2.29814903500023      4.29637335498318
