51
Coordinates from ORCA-job CEMGUX_2_5_tpss_d4_lanl2dz_631gpol_Fe2.opt
  Fe  2.32966400940706      0.47930720321349      5.35295596930407
  O   3.37394361247430      1.90514269335411      4.16730825568674
  O   0.89548062153377      0.28388322383613      3.90007613929215
  O   1.68949577675697      1.85581653696158      6.73681033317510
  N   3.81622919582329      3.54002674600915      5.68625620589293
  N   1.72901483834077      1.31559331413375      2.03997974381213
  N   -0.13817523128141      2.11286951038956      8.04746263317275
  C   4.06277306554125      2.92030036372611      4.52251966248677
  C   5.15400309063094      3.44110750082861      3.67807874757316
  C   5.59908207177191      2.75834656183986      2.60876029154312
  C   0.75487939277165      0.66517091292838      2.67935234857651
  C   -0.49248868161774      0.38926123881359      1.94307021660041
  C   -1.62505974872285      0.02477630594743      2.56900238204924
  C   1.14578779993052      1.75944752491239      7.88946594880052
  C   1.88507602882662      1.30713624511029      9.08210185210000
  C   3.19536910196204      1.01127207353112      9.02074616208761
  H   4.35288026265321      4.34949145142132      5.98340273223148
  H   3.04488171736010      3.20762261865507      6.27043036610563
  H   2.56706177032326      1.60026358763612      2.56672243560588
  H   1.59457591127329      1.65036871164180      1.08994649110184
  H   -0.66130886202623      2.47575041465930      7.25406580463735
  H   -0.58476388999834      2.13614462090253      8.96052741493929
  H   5.60220300277852      4.39183960310062      3.96458867798181
  H   6.40970961116184      3.13873968029183      1.99224028548050
  H   5.16811224217756      1.79694084488620      2.33360262671459
  H   -0.47408245592269      0.53738443417623      0.86392413069277
  H   -2.54438766321686     -0.14649845371273      2.01437533374547
  H   -1.66717729602427     -0.08367927071600      3.65153009436057
  H   1.33855368398393      1.25123233840775     10.02306005947546
  H   3.74566680150782      0.70050588831837      9.90544138306660
  H   3.74873307846827      1.08822629304164      8.08648701519181
  O   1.38660681813255     -1.02206973341472      6.56393082263403
  O   4.12056860111976     -0.29606354156342      5.68024682028958
  N   -0.06104434070454     -2.07280374894169      5.15059951190088
  N   3.97434756116709     -1.96104229475419      7.22964712308198
  C   0.54135457437989     -1.95449560406521      6.34121697128710
  C   0.20154558429866     -2.93501272865233      7.39238386243009
  C   0.59795312150882     -2.76459521620443      8.66573286184595
  C   4.67840381334166     -1.23107966473481      6.35403757549590
  C   6.11364372582470     -1.50898288656116      6.19763620870737
  C   6.87028461970874     -0.79885869150043      5.34184855082196
  H   -0.74310986789271     -2.80347691822112      4.97047463030327
  H   0.13838804918443     -1.36908299633397      4.42991827960260
  H   2.96274386893124     -1.79975277661975      7.29529376037547
  H   4.39979005924166     -2.73110000191591      7.73736673674712
  H   -0.40536881970290     -3.79255836029685      7.10378724777551
  H   0.33692862788315     -3.48178601423891      9.44004532620125
  H   1.17544431873217     -1.89030215569840      8.96411064341244
  H   6.53835567028212     -2.31335826985990      6.79698823345320
  H   7.93098024539930     -1.00486768646503      5.22197607445388
  H   6.43675091051551      0.00169857179657      4.74566701569580
