51
Coordinates from ORCA-job CEMGUX_2_1_tpss_d4_lanl2dz_631gpol_Fe2.opt
  Fe  2.48807405309057      0.21781428924700      5.17614566839483
  O   3.41639553413076      1.51146316276140      4.05349182192727
  O   0.70139898367693      0.51883279424084      4.32576581496354
  O   2.31818851054919      1.31916847744488      6.84718008412285
  N   4.53913365900428      2.64441294248751      5.68486648122899
  N   1.08731793655375      2.09953800391161      2.71294118243785
  N   0.04342538789147      1.31477837886406      7.01132269533419
  C   4.38029269200856      2.28972742192105      4.40676373277680
  C   5.31370371504547      2.81923215370190      3.40289972746986
  C   5.33934274396127      2.34815297599109      2.14278485105936
  C   0.26853951429459      1.28721606710472      3.38281064260986
  C   -1.15805502760281      1.27241010889942      3.01989360111105
  C   -2.02833018817685      0.41026514030912      3.57534272516010
  C   1.25566449123213      1.57006799111736      7.51926692455782
  C   1.33966454092433      2.13910347261336      8.87454259515937
  C   2.50832932421446      2.22971545711355      9.53324015263756
  H   5.29724123833447      3.25779861094319      5.96833393557820
  H   3.87409336582360      2.30422545152327      6.38774338221421
  H   2.08545377387133      2.10774585701680      2.95676650545759
  H   0.74396317681705      2.68707312044806      1.95809609112089
  H   -0.03073246836422      0.92515346792032      6.06628775381425
  H   -0.80103145525369      1.50910971504809      7.54081656284454
  H   6.00290669727819      3.59856066217157      3.72625317509829
  H   6.04090332346597      2.73905460747221      1.41002141698379
  H   4.66805302822987      1.55392920283998      1.82120452664950
  H   -1.48383863737346      1.98726424215757      2.26528840253876
  H   -3.07765646943186      0.40839166558977      3.29126904277459
  H   -1.70936316790801     -0.32018246724250      4.31715610113444
  H   0.40862755800070      2.46846163161709      9.33460340448636
  H   2.55867976210712      2.64191776842182     10.53795044326340
  H   3.43788219198128      1.88118484622332      9.08676363668970
  O   1.61471642214446     -1.25075032169538      6.17997261300922
  O   4.27909244000415     -0.40796269180415      5.57781877348375
  N   0.71834871318946     -2.42533375027442      4.43359204198370
  N   4.03024694460880     -1.35540436825480      7.64668904627856
  C   1.00880564184144     -2.28584389492405      5.73978985143932
  C   0.60419495850726     -3.37099619331724      6.64909139017558
  C   0.64161080947612     -3.23744555079713      7.98635773121996
  C   4.78369970643070     -0.99555591740448      6.59460072762454
  C   6.22821923302664     -1.27094152447590      6.64413877939182
  C   7.04416339169843     -0.93337550229794      5.62976671056770
  H   0.23607550648994     -3.24718621080901      4.08162950319457
  H   0.84397024556029     -1.63400604078684      3.80625996782591
  H   3.01430894261429     -1.30218824932916      7.55214937652940
  H   4.43053341030012     -1.88034503661196      8.41823966232147
  H   0.23707733133477     -4.28869522508389      6.19087671505387
  H   0.31914396385330     -4.04279145456032      8.64147039702627
  H   0.97088871626393     -2.31326568876480      8.45823299930663
  H   6.61010259968962     -1.77257481213508      7.53276392830717
  H   8.10851906993510     -1.15179324898812      5.66647812552742
  H   6.65831416465455     -0.44093153756479      4.73946857813286
