57
Coordinates from ORCA-job CEMGUX-CH3OH_2_3_tpss_d4_lanl2dz_631gpol_Fe2.opt
  Fe  2.56350254285050      0.14262737589231      5.22790218488440
  O   3.46923821205316      1.59947036657060      4.16349383407791
  O   0.70293209208748      0.58117731617371      4.59873878373596
  O   2.49509035482150      1.25203643013301      7.12927426783372
  N   4.51112842506550      2.69711956578602      5.87466062563624
  N   1.15865268660794      1.70621826903895      2.66158111256995
  N   0.23458256965296      1.38160078936893      7.36210822676908
  C   4.35082951575668      2.44016601127139      4.57508194638279
  C   5.21462592192097      3.14921709515063      3.61433612571086
  C   5.23195608355083      2.84176004028006      2.30600290594842
  C   0.29124228915191      1.13448692065388      3.52171044571852
  C   -1.13735413818413      1.12282069631073      3.16881430354462
  C   -2.03758570970457      0.42880629024384      3.88824916525048
  C   1.48214674606249      1.55991874425717      7.83405999128523
  C   1.62369768297211      2.10170646029951      9.20092404058558
  C   2.81862605417142      2.15238378494946      9.81349499302264
  H   5.20619396391873      3.36786424300591      6.18875992347258
  H   3.89187141680903      2.24592353088534      6.56493429335218
  H   2.11608810335352      1.89267990841715      2.99435810908906
  H   0.81105001099887      2.22154620515915      1.85653126615060
  H   0.10950166056378      1.03593112010228      6.40698922944732
  H   -0.58004322909630      1.64924963044465      7.90553846958997
  H   5.85759390028146      3.93410566968982      4.01121301290526
  H   5.87929264063189      3.36850675385102      1.60946938529560
  H   4.60395538326505      2.04967573260337      1.90237707153382
  H   -1.43942836547635      1.69228114588754      2.29051938343830
  H   -3.09120271164495      0.42511126922598      3.62039821714200
  H   -1.73717364081885     -0.15600837751764      4.75586090506680
  H   0.72043548527695      2.44696905655403      9.70328798763285
  H   2.92355915742460      2.54513053846433     10.82179017408067
  H   3.71796300520084      1.79084234200705      9.31775840480811
  O   1.62714786872270     -1.29082321593047      6.27543558990033
  O   4.38357754730232     -0.39498547136191      5.73241994485018
  O   2.74137470209513     -1.03421478046860      3.20378070773257
  N   0.87604506109818     -2.64692067370580      4.59415698405335
  N   4.00369770043707     -1.41115152485918      7.75108901386489
  C   0.89120782620401     -2.25982046388924      5.87538315489145
  C   0.02669803046148     -2.97705706317173      6.83040599652930
  C   -0.15704621986186     -2.53323551932623      8.08615450722226
  C   4.82399609094444     -0.92478079537583      6.80990070416423
  C   6.27638618870469     -1.01315098851214      7.04427666530163
  C   7.16289646925738     -0.53345393181415      6.15487623148498
  H   0.30205614526960     -3.42936306783372      4.29396322866680
  H   1.48938992806215     -2.18035571101989      3.91026588702407
  H   2.99444562032495     -1.40812229655107      7.57712800317877
  H   4.36943576274647     -1.87146135242807      8.57889371330358
  H   -0.47351762646665     -3.87677378113499      6.47348766406414
  H   -0.80164486477998     -3.06286584077504      8.78329862501831
  H   0.32767563340866     -1.62459075532387      8.43847115056895
  H   6.60549311254484     -1.48951942875123      7.96729489234290
  H   8.23367320064304     -0.60616694720987      6.32862585515647
  H   6.83070168310481     -0.06397913483780      5.23124955354305
  C   4.07816987278655     -1.50013559948182      2.83374040093914
  H   4.04240704695583     -1.98415010012476      1.85222731910092
  H   4.77798086303999     -0.65871044677785      2.83705400870639
  H   4.36406474841032     -2.21990266517348      3.60175461878565
  H   2.41864949905849     -0.42450336932156      2.50699679364358
