52
Coordinates from ORCA-job CEMGUX-oxo_2_3_tpss_d4_lanl2dz_631gpol_Fe2.opt
  Fe  2.53847175886893      0.09436674946504      5.00076475211977
  O   3.32145372021005      1.66764494934905      4.13647691710585
  O   0.71827538918005      0.65482692818110      4.52805794380487
  O   2.44098013234066      1.09641541523487      6.80562972537340
  N   4.50147196530823      2.67400114462321      5.82219925230630
  N   1.14655824623326      1.48317798771313      2.43495361386227
  N   0.20504023822731      1.39733381755208      7.16063350614959
  C   4.26403103893960      2.44864282946929      4.52954741285847
  C   5.09570000907741      3.13222508569826      3.52622560268562
  C   5.18270674509481      2.68258764211167      2.26141448473833
  C   0.30504885869823      1.07280151312892      3.37939496507768
  C   -1.14024968215291      1.09230756306308      3.10043053754834
  C   -2.02490564400020      0.43910295956083      3.87420607015784
  C   1.47715601620420      1.44674383017690      7.57153274729867
  C   1.74627123343346      1.90564937819648      8.94665017418231
  C   2.95675548774257      1.76400296826368      9.51466851561480
  H   5.26358254117038      3.27712952822130      6.11636712004969
  H   3.91973878223843      2.20043720871263      6.52082071846934
  H   2.14863288069584      1.53126428751038      2.64282649443653
  H   0.80814182016720      1.77117085576567      1.52119020815517
  H   0.01308968083431      1.12858039262933      6.19057859841773
  H   -0.55340912137640      1.70741840096732      7.76086945284760
  H   5.67018496322807      3.99512718966008      3.86147710937456
  H   5.82106981082649      3.17521387855774      1.53207646833783
  H   4.63835356422725      1.79827039394807      1.93471784016880
  H   -1.46438358042931      1.64358004670764      2.21856583457771
  H   -3.08811023972766      0.45394985375802      3.64792959444393
  H   -1.70596527471552     -0.13822305867561      4.74039483867732
  H   0.91638876954738      2.34891438471633      9.49605780891906
  H   3.14526655796136      2.09733819068447     10.53217055654817
  H   3.78063611708530      1.29570287672343      8.97888652673887
  O   1.64047296631609     -1.29784637990859      6.01910860525587
  O   4.34443732886950     -0.30564094374200      5.57011010680255
  O   2.72967347621580     -0.74532782392234      3.60583428517546
  N   1.00998125170979     -2.69235707670597      4.31361432094509
  N   3.99967945252210     -1.53856952276535      7.48156906774650
  C   0.96963662306874     -2.31356664864650      5.58661871025272
  C   0.13683112512142     -3.07155242973141      6.53522829924421
  C   -0.11646808030280     -2.62532751929819      7.77825543556174
  C   4.79488708332362     -0.98602346653599      6.55502295751281
  C   6.25120090244998     -1.14739991878102      6.69901972023610
  C   7.10513104267072     -0.72385361180778      5.75041140604756
  H   0.50448759223633     -3.51181385926372      3.98852299171765
  H   1.63179585322215     -2.17394870877113      3.67508315517072
  H   2.98833068555469     -1.52386786439579      7.33476414645872
  H   4.38763807048303     -2.14933386715161      8.19445136258010
  H   -0.28367014943444     -4.01057187535597      6.17721027077497
  H   -0.74024603680598     -3.19503705270519      8.46266456640031
  H   0.28386559952840     -1.67788057799360      8.13402252993087
  H   6.60575186183919     -1.64942615654850      7.59882533786914
  H   8.17771199120568     -0.86620367133643      5.85692056180854
  H   6.74498857506704     -0.24115621630736      4.84432677146145
