52
Coordinates from ORCA-job CEMGUX-oxo_2_1_tpss_d4_lanl2dz_631gpol_Fe2.opt
  Fe  2.53998710897407      0.08898624027056      4.99847064715030
  O   3.33058918403049      1.65589928271327      4.12566914439865
  O   0.72441184737784      0.65762551193893      4.53147512720547
  O   2.44154937227104      1.09212988434128      6.80106807406896
  N   4.49705989784754      2.67404733297784      5.81365706612080
  N   1.15143116379251      1.48280307608502      2.43652527225820
  N   0.20675104282052      1.38434411300051      7.16750628895093
  C   4.26482024384262      2.44529725539468      4.52047434237842
  C   5.09572792588141      3.13330919878296      3.51928831674352
  C   5.18691596365316      2.68599734467270      2.25401096810546
  C   0.31047738108064      1.07632380586803      3.38301658517016
  C   -1.13537106978137      1.10062650138120      3.10722739041734
  C   -2.02027343621767      0.44812124427911      3.88131374191274
  C   1.48095191143439      1.43998791012640      7.57177050824533
  C   1.75534700035959      1.90264206913116      8.94461039661590
  C   2.96989503794091      1.76970732319882      9.50601271484484
  H   5.25229277291806      3.28521606089848      6.10888632537116
  H   3.91534415089699      2.19927330436805      6.51147251135448
  H   2.15424392363055      1.52979238937110      2.64272311771098
  H   0.81172474885064      1.77026559384690      1.52300509519166
  H   0.01285111318963      1.11659977318702      6.19758900785021
  H   -0.54982962034566      1.69598175417575      7.76927618387207
  H   5.66634624022223      3.99791815663963      3.85672945721381
  H   5.82435861034847      3.18250416234685      1.52649786709497
  H   4.64669667736711      1.80000562298188      1.92495251097827
  H   -1.45974431289542      1.65453648506323      2.22711153868386
  H   -3.08387351617830      0.46652187157445      3.65711313516821
  H   -1.70137408553518     -0.13241284873026      4.74537356603383
  H   0.92603118225452      2.34190243464152      9.49809823646154
  H   3.16213823813568      2.10627310375573     10.52175999021994
  H   3.79391565420551      1.30598294798183      8.96647036366852
  O   1.63709026371043     -1.30211032846396      6.01549531190200
  O   4.33895080656686     -0.31236787880954      5.56884490635149
  O   2.71996107860834     -0.74919538698587      3.59627245532015
  N   1.00820159898395     -2.69859483618568      4.31037373146124
  N   3.98846817841010     -1.53123997028110      7.48834685291487
  C   0.96767966185143     -2.31842980313113      5.58335321689627
  C   0.13460143691299     -3.07704311580287      6.53143317691614
  C   -0.12042254217174     -2.62993908732072      7.77378788298649
  C   4.78652101761476     -0.98546549658937      6.56062295795687
  C   6.24228390875299     -1.14504004372273      6.71019437725180
  C   7.09948005016842     -0.72069424559657      5.76482207265495
  H   0.50261897554645     -3.51839160924563      3.98609507551356
  H   1.62801850701009     -2.18066841360615      3.66953771037646
  H   2.97750909597060     -1.51890823745270      7.33744227528144
  H   4.37457770669297     -2.13483492772736      8.20832218756864
  H   -0.28499112341716     -4.01656403055707      6.17372329983458
  H   -0.74449720069669     -3.19946114553124      8.45810060217735
  H   0.27854800666090     -1.68164406703144      8.12885467901304
  H   6.59397319169786     -1.64640357194596      7.61148297140147
  H   8.17178733749677     -0.86169805128803      5.87576405883739
  H   6.74234769125694     -0.23851465898954      4.85727470592278
