38
Coordinates from ORCA-job ALIYOJ-CH3OH_1_3_tpss_d4_lanl2dz_631gpol_Mn3.opt
  Mn  2.51819687568452      9.18323466943034      2.43957534746394
  N   2.54747729506249      9.83887831347358      0.58618094976951
  N   1.07470714178396     10.52026081535278      2.51874376533124
  N   3.96361460209742      8.06926262940306      1.70109488882357
  C   4.69575925914175      7.22047616608719      2.45013534984253
  H   4.38716291282599      7.13636116540001      3.48860498784676
  C   5.77064093802480      6.51126061885502      1.90839254610701
  H   6.34143620776654      5.83635178685098      2.54045051917319
  C   6.09292480869355      6.69107699410404      0.55745781539052
  H   6.92385534863349      6.15090069215204      0.11035498200246
  C   5.34222500767568      7.58769174034896     -0.21315447955079
  H   5.58555029852762      7.75760234906981     -1.25869768006688
  C   4.28474303423090      8.27709310319328      0.38508493286200
  C   3.43762323242211      9.29116534709089     -0.26903534145478
  C   3.47312690120172      9.72800755151722     -1.60027542763912
  H   4.17795130938713      9.30592923301070     -2.31074482397587
  C   2.57460482148385     10.72948650259217     -1.99508321197735
  H   2.58552937844122     11.08363293069312     -3.02326939069281
  C   1.66326853567909     11.28062178776816     -1.08484646634212
  H   0.96976899422865     12.05623415685688     -1.39679665937737
  C   1.67235716171255     10.80551422054281      0.23502078379277
  C   0.83173169197524     11.22914900248530      1.36761524824952
  C   -0.11139195886134     12.25951996655401      1.34314700776717
  H   -0.29310926796955     12.81182288094288      0.42481939022511
  C   -0.80183160354868     12.58038127750683      2.51803972901294
  H   -1.53332138831909     13.38474125867009      2.51877419456887
  C   -0.52830542630050     11.86381111705149      3.69054743451754
  H   -1.03411665540037     12.09479592093196      4.62414092115128
  C   0.41912050472480     10.83825689473496      3.65588848571203
  H   0.69157580985152     10.24769922996061      4.52660684647753
  F   2.32900260531479      8.45321519603251      4.02616093200673
  F   3.71250565746878     10.38266663962596      2.96035219115702
  O   1.08472852517378      7.79409878022406      1.74298567535030
  C   1.28185764405884      6.39747213528057      2.13403569852504
  H   2.12655386805759      6.04014846775745      1.54360722570339
  H   1.50573584282616      6.34451437954614      3.20384915109461
  H   0.38079308698552      5.83024304472286      1.88055168386760
  H   0.24535699925743      8.09601103417894      2.14730479728485
