32
Coordinates from ORCA-job ALIYOJ_1_5_tpss_d4_lanl2dz_631gpol_Mn3.opt
  Mn  2.65608368631879      9.36175907383819      2.51347068005512
  N   2.51460403157903      9.82564706412893      0.59136699145432
  N   0.91710325155468     10.45926646032033      2.46763816862159
  N   3.83237828051069      7.91758393011802      1.63992064107845
  C   4.47328729347043      6.95956494740415      2.33704469557124
  H   4.15280920967970      6.83910812948763      3.36845220270696
  C   5.48170949971442      6.18580565921819      1.75559560456796
  H   5.97400359681200      5.41372435340920      2.34047203617702
  C   5.83870677357533      6.42979251700606      0.42384103370994
  H   6.62584762405729      5.84907598981036     -0.05118239385877
  C   5.17795920890112      7.43315028602067     -0.29612235313872
  H   5.44871561838065      7.64285997745344     -1.32747529433047
  C   4.17026676255626      8.16568264560885      0.33663376627630
  C   3.36567850940101      9.23307872066263     -0.28289001338851
  C   3.37081955504217      9.63437339800107     -1.62438433138921
  H   4.04510305813002      9.17410522354180     -2.34077247379055
  C   2.47533288215789     10.63330810028190     -2.02891004449974
  H   2.46453113693788     10.95851021179957     -3.06636348994779
  C   1.57371733392829     11.19648332077720     -1.11596026316890
  H   0.85655823460912     11.94578578583297     -1.43850284810919
  C   1.60786190340391     10.76156628237166      0.21462679459750
  C   0.71706153263748     11.16990938702560      1.31468208132908
  C   -0.26340515169468     12.16296238698659      1.24361974420616
  H   -0.40895292130315     12.73013304689822      0.32806267234266
  C   -1.04872434786125     12.42041950587603      2.37438263544535
  H   -1.81669873420245     13.18940356592012      2.33885889438436
  C   -0.83360730928362     11.68545227063061      3.54665237441469
  H   -1.42674103000618     11.86008036241890      4.43989013148575
  C   0.16950921246538     10.71208383240299      3.55925659650743
  H   0.40406467045551     10.11241410392718      4.43486904898815
  F   2.41960249340350      8.59343327531913      4.05262059903765
  F   3.86541413466870     10.59987618550152      2.94570611266413
