33
Coordinates from ORCA-job ALIYOJ-oxo_1_3_tpss_d4_lanl2dz_631gpol_Mn3.opt
  Mn  2.32657396618433      9.01717659933968      2.39046398422184
  N   2.39567741575598      9.70467147116115      0.53288589625221
  N   0.92359847034178     10.44453453924118      2.47777467925470
  N   3.82999229058451      7.92158493565824      1.65482019923203
  C   4.50792857243613      7.02453570710599      2.38725807368047
  H   4.19785701160117      6.92792809902969      3.42375318918995
  C   5.55046824622284      6.27808448780896      1.82687507735282
  H   6.08597832594104      5.55991228324446      2.44136064062171
  C   5.87790310526758      6.47679529856814      0.48200621727288
  H   6.68209466883700      5.90882093151110      0.02058092454876
  C   5.16368213559146      7.41717553370143     -0.27130187904631
  H   5.40543522526251      7.58862630867003     -1.31662632708771
  C   4.13503872329843      8.13631510390458      0.34135046267061
  C   3.30776314284158      9.17132857326618     -0.30309720067431
  C   3.38544891942210      9.64578732886764     -1.61951672448567
  H   4.10773695646205      9.23573469685073     -2.31926184364203
  C   2.50962437398339     10.66581960566716     -2.01356738960503
  H   2.55111368904473     11.04553243633781     -3.03152407658012
  C   1.58703964748425     11.20891228687591     -1.10979020108262
  H   0.91787137423737     12.00791936930749     -1.41535411728411
  C   1.55093820744616     10.69822691923570      0.19495455841815
  C   0.69556313066905     11.12517221551824      1.31616497713432
  C   -0.26472339308531     12.13810418394982      1.26728151824245
  H   -0.44451505893729     12.67891994568735      0.34218785776987
  C   -0.98672098735018     12.44664154988716      2.42723170500607
  H   -1.73738366040258     13.23302998525470      2.40653424393027
  C   -0.73209706023827     11.73940051311972      3.60629887714345
  H   -1.27063152639333     11.95514087690874      4.52494359286731
  C   0.23943940597811     10.73214950878462      3.59562292460505
  H   0.49422404868850     10.14299561085077      4.47173473765020
  F   2.41753944361470      8.58306504558844      4.05743080915369
  F   3.53815168515911     10.33911744592730      2.62221093108731
  O   1.22618950405101      7.93204060316964      1.82981368218178
