47
Coordinates from ORCA-job DOMNAV-OH_1_6_tpss_d4_lanl2dz_631gpol_Fe2.opt
  Fe  2.80828892346483     10.38499342553180      1.88012693778272
  Cl  4.45455094451321      8.77877693157730      1.68699191541407
  O   3.79574748499407     11.90284950111160      2.27716583266207
  N   1.22343151740717      8.91258457970594      1.12836100922053
  N   1.92571222840485      9.47876616394937      3.68001670924481
  N   1.01319438060593     11.62037597030671      1.73685682785934
  N   2.73159868048148     10.71154078836798     -0.26477919868730
  C   1.60176618941354      8.57441106566027     -0.26745993672641
  H   0.78018877724620      8.06805325646075     -0.79761836112757
  H   2.45491274712642      7.88452128222742     -0.20996041366727
  C   2.05382580164796      9.81203194914956     -1.01070365897286
  C   1.86404215283700     10.00063548574256     -2.38196443384930
  H   1.31053004190015      9.26545840732920     -2.96224673071850
  C   2.40541940080104     11.14102280121667     -2.98843136667287
  H   2.27389401292481     11.30766068996583     -4.05545763482070
  C   3.11358979808464     12.06196691171202     -2.20713738261601
  H   3.54900923791418     12.95718686701106     -2.64341937752294
  C   3.25016304500256     11.81442923074835     -0.83997788007248
  H   3.77074691533497     12.48782734401855     -0.16355794854290
  C   -0.12933084227050      9.53035861606278      1.22759445922513
  H   -0.56906981745322      9.20346107830824      2.18022643422358
  H   -0.78419000223813      9.15895880219407      0.42549196380159
  C   -0.09914434656605     11.04541601213454      1.23380141297779
  C   -1.19215649235929     11.81175569274751      0.81752911327866
  H   -2.07394527561902     11.32636546319574      0.40399802577137
  C   -1.13139531960771     13.20420102641011      0.94762241603733
  H   -1.97020923588369     13.82038979014128      0.63063542741839
  C   0.02141835093497     13.79118687864844      1.48348361688094
  H   0.10629781982397     14.86872272251041      1.59855012477151
  C   1.08131082003286     12.96306332087598      1.85701742184195
  H   2.02435502467733     13.34237524682934      2.24371028216299
  C   1.34873104757949      7.75303654487965      2.04965134916930
  H   2.29783497775953      7.25195014447593      1.81871944543193
  H   0.52794848129684      7.03144818614751      1.91206921348973
  C   1.38614025747893      8.24729472796125      3.47962256802177
  C   0.91449653748913      7.46303691273774      4.53145104111043
  H   0.48194564193854      6.48569667656549      4.32950170817715
  C   1.02173029700988      7.95592859664933      5.83672257021071
  H   0.67859018588019      7.36207358010604      6.68121828216568
  C   1.55956547667612      9.22693874542055      6.03612454589769
  H   1.63955137524248      9.64768693770348      7.03556029062016
  C   1.99464460171350      9.98859781587088      4.93839622373589
  C   2.49590388802932     11.39481240844268      5.12567595013253
  H   3.20588370824403     11.67895930950248      4.34107469691123
  H   2.96023211948405     11.51030349125564      6.11141493951808
  H   1.64881298058566     12.09656039064608      5.07396488205160
  H   4.75606546001568     11.72168822978324      2.35914668677836
