46
Coordinates from ORCA-job DOMNAV-oxo_1_1_tpss_d4_lanl2dz_631gpol_Fe2.opt
  Fe  2.44840656122622     10.36889110442182      1.75399600811006
  Cl  4.16394524736477      8.85678433031142      1.62128441082368
  O   3.39665729001471     11.63476719524007      2.19666272913675
  N   1.10084633444987      8.91717602755454      1.06466950139642
  N   1.93770345536627      9.57770456216047      3.52136083112364
  N   0.85013218166823     11.52053054492439      1.66710427902165
  N   2.67445224472845     10.71258366833591     -0.15275290647268
  C   1.53799557073390      8.58737375490172     -0.32587703212935
  H   0.72448564159322      8.12998859131313     -0.90606603433243
  H   2.36151778820605      7.86696852982700     -0.23553214167797
  C   2.08821585975604      9.82295917418426     -0.99391058828224
  C   2.11162126632355     10.01587117680269     -2.37578482178938
  H   1.62993907435812      9.29288595841138     -3.03011924870332
  C   2.77685848216055     11.13209782406319     -2.89632482435347
  H   2.81201192535174     11.29727092505316     -3.97078728573994
  C   3.40164366617011     12.02388554034770     -2.01729411751376
  H   3.94150122323403     12.89378891693369     -2.38155866676972
  C   3.32629220695442     11.78660501938157     -0.64490123435503
  H   3.78555733328459     12.42729346618164      0.10239342162519
  C   -0.29434588320706      9.45951378113052      1.12541690360603
  H   -0.77248584121563      9.04604196597957      2.02393496956449
  H   -0.87784726624669      9.11765840744873      0.26007917736842
  C   -0.30451317285565     10.96210833581764      1.23593490807415
  C   -1.44000560157361     11.73579536200169      0.98089637083537
  H   -2.35084527856020     11.25774277461245      0.62693844471244
  C   -1.38450795126139     13.11692021653955      1.19159073104954
  H   -2.25692149285855     13.73766141542825      1.00029462019503
  C   -0.18763516243825     13.68481646994012      1.64589691257498
  H   -0.09813359494243     14.75382665132533      1.82008954814559
  C   0.91274128384261     12.85828085274101      1.86344075558997
  H   1.88380038193926     13.22600600741278      2.18425841646190
  C   1.25012431427636      7.77913363875597      2.01924867176769
  H   2.18830422850306      7.26620841747343      1.77566825625369
  H   0.41349477815097      7.07027527997634      1.93506155132504
  C   1.35992687674502      8.34419188069102      3.41364349258099
  C   0.94692204255435      7.61259786931449      4.52421819266894
  H   0.48080117154752      6.64012518030508      4.38425646020971
  C   1.16159726504841      8.14339222283054      5.79915002114860
  H   0.86233161761571      7.59308700089312      6.68832712353024
  C   1.76392538962102      9.39469731065719      5.90543499404428
  H   1.94800607122427      9.84116686250448      6.87906066706397
  C   2.14364556899418     10.11266775019334      4.75810821023016
  C   2.78337864360148     11.46404454611555      4.90015732120542
  H   3.77746659809742     11.47299131551694      4.43905665978555
  H   2.86902316269029     11.72180784922869      5.96103307727422
  H   2.18676849776259     12.23541432481589      4.39864126361540
