51
Coordinates from ORCA-job DOMNAV-CH3OH_1_5_tpss_d4_lanl2dz_631gpol_Fe2.opt
  Fe  2.68271867561361     10.16257850070754      1.91707863155420
  Cl  4.45772085755086      8.66411979628328      1.94954111758115
  O   3.96524479464580     11.89201339240947      2.40865879508894
  N   1.15493831536292      8.76056879378524      1.13630978801989
  N   1.74557864131768      9.27658282645387      3.74710502376083
  N   0.92789416732227     11.48857804473798      1.74576447305954
  N   2.64841499848142     10.64556512075929     -0.26344421733364
  C   1.63823073754808      8.43439481813174     -0.22859121932052
  H   0.89691015233480      7.84581876539940     -0.79341564173322
  H   2.54666397010082      7.82919055097487     -0.10039805192696
  C   2.00968101677803      9.69408937421230     -0.98474203756920
  C   1.74671360135742      9.85387906914207     -2.34884621228269
  H   1.22656844942391      9.07155846003723     -2.89787277865771
  C   2.16579618800980     11.02580673750037     -2.98939053017400
  H   1.97724057991613     11.16969984955816     -4.05121950525000
  C   2.81903558466305     12.01122602016397     -2.24090286061991
  H   3.15200534450489     12.94059380900194     -2.69615559159066
  C   3.02916672750819     11.78126109931549     -0.87926355627911
  H   3.50559103184052     12.52564094183760     -0.24486137038595
  C   -0.19178876975781      9.39040628912150      1.15436303470016
  H   -0.69409360684357      9.06352493986253      2.07573450755561
  H   -0.80198389925565      9.03352903866881      0.31065381383614
  C   -0.14993351745053     10.90842159804195      1.16836149684962
  C   -1.21075703128610     11.66690264016361      0.66072561559683
  H   -2.05857003005985     11.17029645152920      0.19267884918103
  C   -1.16506236687740     13.06077976988145      0.76513572908262
  H   -1.97983636843441     13.66852735624025      0.37727824241761
  C   -0.05124513740311     13.65874567595800      1.36739521446366
  H   0.02856287820022     14.73855840091317      1.46456320858706
  C   0.97379704854292     12.83526853816211      1.83372550953540
  H   1.88147882710429     13.24379726668639      2.27192883361306
  C   1.22478678897113      7.59803908980303      2.05731751535450
  H   2.19642960828994      7.11273328181770      1.89090005220036
  H   0.42514128645064      6.86651509263405      1.85799322335041
  C   1.16810979915427      8.07664633983953      3.49431961321935
  C   0.59035214684423      7.29876995428961      4.50094621168573
  H   0.12730082254425      6.34538590130680      4.25568441142688
  C   0.62909031249441      7.76781391376565      5.81755070901173
  H   0.19248656659839      7.18428272594384      6.62534138701358
  C   1.23033424182737      9.00155923018732      6.07896009032573
  H   1.27411974878187      9.39742217004975      7.09085408851951
  C   1.77945652996248      9.73777386874935      5.01983291055594
  C   2.45348457821811     11.06679771439422      5.24724098373448
  H   3.54415734029383     10.94971027312535      5.14656555769622
  H   2.25330440686965     11.45119995021046      6.25306993198512
  H   2.09685013279089     11.80348513711855      4.51425307241515
  C   5.35231696517492     11.86686056714142      1.93549939901359
  H   5.78535809221307     12.86706866056472      2.05148974459778
  H   5.92415570547557     11.10964853988882      2.47952666972639
  H   5.30631513322650     11.58404593451556      0.88300394978413
  H   3.99262793305921     12.00239771901296      3.37960216702355
