45
Coordinates from ORCA-job DOMNAV_1_1_tpss_d4_lanl2dz_631gpol_Fe2.opt
  Fe  2.32660734679293     10.24596850332304      1.77558767258683
  Cl  4.31101659268603      9.17822375378329      1.87228353655496
  N   1.06559841771227      8.88180860933882      1.08620536024458
  N   1.87120369644709      9.51282028704757      3.51321932748047
  N   0.83206088824682     11.47043945024768      1.69889365692212
  N   2.65275170830206     10.70541009636976     -0.07123369782557
  C   1.53177933648060      8.58253658287347     -0.30664000294931
  H   0.73453567688269      8.11963794520950     -0.90511854101675
  H   2.36065066978756      7.86890111229444     -0.21082636501411
  C   2.07376457163303      9.83914132256498     -0.94697538186830
  C   2.09100614189473     10.06469803785590     -2.32277008906747
  H   1.61271257043689      9.35597647757470     -2.99531933526596
  C   2.74640845841957     11.19980505801709     -2.81753558837079
  H   2.77773135707718     11.39393479746053     -3.88711592737322
  C   3.36782206813197     12.07049917260450     -1.91559260393366
  H   3.90171119114600     12.95310116331693     -2.25778700351756
  C   3.29571431769982     11.79233596076767     -0.54989184756148
  H   3.76607649427982     12.43127849618793      0.19326604308051
  C   -0.33389684163728      9.42795303236222      1.14368844403602
  H   -0.80076475907497      9.02714999062595      2.05349349563171
  H   -0.91967140505658      9.07221267272924      0.28581757370418
  C   -0.32664835898144     10.93467561474076      1.22994299314474
  C   -1.43115389352716     11.72665744599745      0.91412327891332
  H   -2.33848418668203     11.26205214311641      0.53358225038970
  C   -1.35372952037402     13.11263686647043      1.09572083493302
  H   -2.20317046719344     13.74829294881071      0.85743821090475
  C   -0.16116158701963     13.66295536351327      1.58235063925860
  H   -0.05248828398029     14.73354203752050      1.73525747247029
  C   0.90769266746376     12.81416550842509      1.86379330260218
  H   1.86091002324392     13.19424860893093      2.22420510355585
  C   1.22532348063065      7.72720463098533      2.03285973580401
  H   2.18750754869089      7.25502911338195      1.79729648514516
  H   0.41782442189632      6.99046799693508      1.91179954273216
  C   1.29486362527990      8.28175322715960      3.43703281345477
  C   0.89158262973133      7.58426801136711      4.57243985207317
  H   0.42675196523602      6.60568395284132      4.47703433107760
  C   1.12290663618159      8.16139878400690      5.82839737312021
  H   0.82893876812820      7.63926959484774      6.73609525906637
  C   1.74867247030049      9.40803280498278      5.89986207892694
  H   1.96084922407217      9.87052821651334      6.86071783995299
  C   2.11638755392061     10.07473742543758      4.72273231115992
  C   2.80688058193258     11.41122588270418      4.71135953926871
  H   3.63161609106535     11.39896581901535      3.98304629345271
  H   3.22026511859673     11.65055916717225      5.69709224389726
  H   2.10314499309915     12.21001631256808      4.43717148821825
