51
Coordinates from ORCA-job DOMNAV-CH3OH_1_3_tpss_d4_lanl2dz_631gpol_Fe2.opt
  Fe  2.41266749103384     10.18833955225648      1.77714304991299
  Cl  4.20728587902266      8.75782270354706      1.82460466291354
  O   3.91778247182523     12.03147226014452      2.14002297970386
  N   1.00877090318460      8.69055820462602      0.94966046432596
  N   1.76953681998970      9.41873805916182      3.52287673551504
  N   0.79574363496443     11.32758524471808      1.71719904824411
  N   2.66260710669874     10.55010950014468     -0.16663848559373
  C   1.66420321508811      8.33031831490991     -0.32834217918746
  H   0.99107844717035      7.78056542652233     -1.00586726597837
  H   2.51910176064068      7.68781057611379     -0.07933020500551
  C   2.19150313557591      9.58077891566942     -0.99873560708259
  C   2.21617219485580      9.73302698968534     -2.38662085931511
  H   1.83030876697919      8.93585030851553     -3.01860420674274
  C   2.73839450846853     10.90554743827544     -2.94341069349575
  H   2.77200246378324     11.03729874464004     -4.02254879469243
  C   3.19610430748360     11.90912700938597     -2.08329324807124
  H   3.59317922060095     12.84610642745143     -2.46543029614323
  C   3.13124938035381     11.69920198098154     -0.70568597223194
  H   3.44931025532951     12.45112226208764      0.00959281025704
  C   -0.32026331994812      9.31871123388908      0.80571702454648
  H   -1.06491734184109      8.74268161252879      1.37413049386251
  H   -0.63283321344622      9.28048657716843     -0.24799449773909
  C   -0.35611277923834     10.77045581261723      1.26593182267774
  C   -1.54208921546033     11.50918478783821      1.18953731011008
  H   -2.44966738177571     11.02654867506558      0.83127830165859
  C   -1.54731867145254     12.85554651550782      1.56177653636637
  H   -2.46204994947701     13.44123056954198      1.50712521733199
  C   -0.34611204073807     13.43638937695457      1.98976404855299
  H   -0.29029911733574     14.48477389727825      2.27127679138713
  C   0.79612464248222     12.64373632052817      2.04935985624182
  H   1.75831698105829     13.05041178292706      2.34485550104317
  C   1.05843813827246      7.64405415902542      1.99031735432738
  H   2.01388045337066      7.11640981670206      1.87091542329963
  H   0.23577217108810      6.91752045462233      1.89182237309685
  C   1.05318577237126      8.26707361227712      3.36879584183063
  C   0.41341333527927      7.63838207200803      4.43723141302397
  H   -0.15670636529528      6.72927369368112      4.25937039109226
  C   0.53315139200577      8.17966051576747      5.71977372940012
  H   0.04667533612623      7.70934573177449      6.57134283475944
  C   1.30264863368730      9.33157478796169      5.88319649160516
  H   1.43960677331114      9.77692066128955      6.86551494328474
  C   1.91309698415903      9.93214224024473      4.77375525069164
  C   2.77540402042123     11.15279340136392      4.94040233896125
  H   3.77595803097437     10.94697725130727      4.53699366450711
  H   2.87260792790011     11.41798846548921      5.99829913944907
  H   2.33409899700966     12.01231459917293      4.41565528650756
  C   5.33298340616296     11.80767661246116      1.85271115511013
  H   5.85783183921651     12.77113296117248      1.83415119041490
  H   5.77148556231745     11.12840424729441      2.59056302765708
  H   5.37218760718584     11.32730279134654      0.87437030586372
  H   3.86735942855951     12.37159484435488      3.05331750174499
