57
Coordinates from ORCA-job APUVAK-oxo_2_2_tpss_d4_lanl2dz_631gpol_Co2.opt
  Co  0.10578850630465     -0.21924891400309      3.06625182121293
  N   1.39308617031249      0.82207828645822      2.00943890617077
  N   2.43534090065498      0.21243930135984      1.35671729560048
  N   3.27512174754586      1.07171490924413      0.89821642797152
  N   2.78153278636695      2.30310328225491      1.25780167113623
  N   3.34410892939261      3.54214984893794      0.96735124775763
  H   4.28719609559789      3.58111808294764      1.36554829881476
  H   3.40496050768763      3.64736934902353     -0.05011700816402
  N   0.97819548925447      3.16971805052637      2.54777759272505
  H   1.29126158764138      4.09971287795510      2.26675145336390
  H   -0.02494895173537      3.02116088372201      2.68086113525306
  C   1.62770992464841      2.15367914422799      1.96485683572402
  N   -1.41137561310611      0.43728720903005      2.00568012730456
  N   -1.35161628730547      1.77286056727579      1.68150019283839
  N   -2.48678261106723      2.21281499472516      1.27718856862048
  N   -3.34529252234667      1.13864606955183      1.33315058826333
  N   -4.68971287977858      1.12744204753121      0.97561617906560
  H   -5.20440368530474      1.75413978728714      1.60237338654857
  H   -4.77712615588597      1.46952624711438      0.01403936611965
  N   -3.28192659252449     -1.14275278147701      1.99509407555550
  H   -4.21913190277735     -1.21837878630429      1.60017746787048
  H   -2.65259610805456     -1.95200055350903      1.94572571707186
  C   -2.68513429267957      0.04004365385162      1.79305130781653
  N   0.27619420016969     -1.94851402476429      1.93216634437635
  N   -0.90657808233530     -2.60231719041466      1.64669476747981
  N   -0.71441405059364     -3.72815871669851      1.06250484867388
  N   0.64832258952941     -3.84800332374334      0.93575805071041
  N   1.33870708354891     -4.87824592598189      0.30285549100062
  H   1.16576614616311     -5.75411461298744      0.80536531128776
  H   0.98773862539103     -4.96928330180780     -0.65549013778229
  N   2.59224080429091     -2.61086486146480      1.50808478956375
  H   3.11036598978596     -3.29510480633948      0.95678925078930
  H   2.91697046578167     -1.63910866619474      1.50548492973619
  C   1.26046582493257     -2.74938489174076      1.46357491129634
  N   -1.17266468063711     -1.10584957226020      4.22359963956932
  N   -2.21861843839839     -0.33661277934192      4.70098949370915
  N   -2.99339631249504     -1.04118068597153      5.43791099917257
  N   -2.44837224674225     -2.31318273621390      5.47293114939894
  N   -2.91404600538498     -3.40085571289181      6.20716766747877
  H   -3.84208547649350     -3.66193400260855      5.85982122958794
  H   -2.99724832126840     -3.11984728059406      7.18917890281561
  N   -0.57323668198264     -3.45601070340198      4.54211585572107
  H   -0.82204609774209     -4.22775541522389      5.16191845363527
  H   0.42494610844943     -3.30276965298411      4.35853869168969
  C   -1.31121685771850     -2.34706628846832      4.72819577264367
  N   1.59902892854957     -0.78847422755980      4.17649883854345
  N   1.94730177108700     -2.09619007564564      4.40821894510131
  N   2.97479363023693     -2.17494681720247      5.17756177045432
  N   3.32363473388730     -0.87262440714945      5.47539111355862
  N   4.34813368152488     -0.46284933863006      6.32392682628853
  H   5.24546358087736     -0.76299013479153      5.93079456928828
  H   4.21837816183748     -0.91116927053794      7.23612467770242
  N   2.51239667451868      1.32323509423925      4.91742420023573
  H   3.11247708432837      1.71773212816501      5.64098072509396
  H   1.58887930942137      1.74854929763233      4.72785376849486
  C   2.46076286297305     -0.01416237919631      4.86809725270099
  O   -0.07460004833403      1.21443172504319      4.06381824534186
