56
Coordinates from ORCA-job APUVAK_2_6_tpss_d4_lanl2dz_631gpol_Co2.opt
  Co  0.11105428355019     -0.28179293747534      2.91057264893922
  N   1.58174849036069      1.06385460679777      2.16294949365916
  N   2.85718493077678      0.53565989814132      2.05442037662884
  N   3.75683457926484      1.65418441991153      1.72479870409587
  N   2.89801923927338      2.46551708351819      0.98893843320651
  N   3.24872134959524      3.78784304295544      0.66524689535621
  H   3.88520117007224      4.14791082668140      1.38850277373610
  H   3.75194182638106      3.76811473622749     -0.22624787540800
  N   0.64502410223762      3.12477263634082      1.34091737768796
  H   0.86885472773549      3.96579866939440      0.80418036509570
  H   -0.32157500770407      2.91068486880799      1.67736133130884
  C   1.60896489341013      2.24768292164735      1.50801461751073
  N   -1.56789807703698      0.56229759589047      1.96937090667250
  N   -1.76507051241360      1.92746983082310      2.01110981436382
  N   -3.00060646917821      2.24987473912987      1.87296808441848
  N   -3.67422460435232      1.05868188145742      1.73611201690456
  N   -5.04804650933276      0.89776833175935      1.57994168936009
  H   -5.51747598644242      1.26977804664317      2.41181243720885
  H   -5.35095399848140      1.43262586514791      0.76031413152487
  N   -3.14777997305089     -1.26601131694866      1.76582816690392
  H   -4.10597793378018     -1.46702501696357      1.48761136805239
  H   -2.40885935051250     -1.96836059931484      1.61554263710367
  C   -2.79480310260741      0.02089226820553      1.80507725131978
  N   0.40370810245461     -1.97537405587904      1.78035100067445
  N   -0.67615411249166     -2.75333410756995      1.41533215610311
  N   -0.31247304203142     -3.82930999760963      0.81692991676986
  N   1.06711292506381     -3.78077621605723      0.77082463529081
  N   1.91079049616175     -4.71476556788198      0.17581652358181
  H   1.80443385725538     -5.61279734193655      0.65757334376529
  H   1.63442861556341     -4.83007574643963     -0.80410040021027
  N   2.78783444204520     -2.29222404740974      1.49859205010924
  H   3.46752978253393     -2.86219287089672      0.99919661767222
  H   3.00922127752059     -1.31011000671727      1.73015039838614
  C   1.50582105929151     -2.63301022976705      1.36128926864512
  N   -1.28752681359254     -1.04076894489864      4.26587509666500
  N   -2.30118893309532     -0.17465181393210      4.65544522011684
  N   -3.17200856416074     -0.77336424812125      5.38210722780472
  N   -2.73695523313740     -2.08411851176075      5.50021304159664
  N   -3.33796004631768     -3.10040585854683      6.23976005183491
  H   -4.26921449444818     -3.28522712982913      5.85458675712912
  H   -3.44138750669217     -2.78144258799920      7.20804960720049
  N   -0.91898551237207     -3.40252220173011      4.68619327226687
  H   -1.23319396770978     -4.15094256364480      5.30243714341777
  H   0.08461366150698     -3.33260835144025      4.48139851127385
  C   -1.57403784155743     -2.23818266834588      4.81178773023754
  N   1.65640765916428     -0.93445817786910      4.25666372266193
  N   1.74962527309487     -2.28560760139164      4.52749831310955
  N   2.70626890251178     -2.55027471664480      5.34544117439339
  N   3.29233069561260     -1.33558395299318      5.63276634676102
  N   4.39117612270022     -1.11065842774412      6.45897036111169
  H   5.17422655032460     -1.68168300125043      6.12691215445704
  H   4.15316438898649     -1.39745198544854      7.41367092518243
  N   2.93722740566294      0.95417754930563      5.10359467709736
  H   3.80721494321495      1.16639698443563      5.58925691802459
  H   2.62543029500752      1.60158991144644      4.38889536486536
  C   2.63724154416400     -0.34766391221021      4.96347722635374
