57
Coordinates from ORCA-job APUVAK-oxo_2_4_tpss_d4_lanl2dz_631gpol_Co2.opt
  Co  0.07612435964323     -0.20354253175070      3.05991645121368
  N   1.51412590461284      0.88303963404712      1.90502107254489
  N   2.71520535306245      0.31416327700692      1.55115141720804
  N   3.59523822932113      1.19347423251553      1.22668658047377
  N   2.97028895173657      2.40982161008961      1.37572750341794
  N   3.52384299646363      3.66412110987602      1.13565774667044
  H   4.35430499412631      3.77900663412759      1.72420539325720
  H   3.80315534028840      3.71921606031319      0.15131427308100
  N   0.86086011434478      3.20559716097592      2.16237443737426
  H   1.14947438863430      4.14657938762800      1.89678174503213
  H   -0.14343076195345      2.96471673916706      2.14624099453663
  C   1.69428926888967      2.21961305169357      1.81603188230443
  N   -1.58939349734353      0.50790399331883      1.93451468863242
  N   -1.60838102375212      1.87137551356575      1.74883153643929
  N   -2.76992424604792      2.30191841983989      1.41087436221191
  N   -3.57464655060798      1.18750640234561      1.36789555350091
  N   -4.92637677139120      1.14996000454664      1.03868065300314
  H   -5.45040030039145      1.69316850190372      1.73201813534018
  H   -5.05166238574710      1.57701124643983      0.11607667210711
  N   -3.37825898230258     -1.14053692721210      1.80036187868686
  H   -4.31832507248007     -1.25571994881587      1.42719773917368
  H   -2.71726382025150     -1.92257006455946      1.79674307252169
  C   -2.85037610835740      0.08366319940695      1.70568222234923
  N   0.22406103150882     -1.90707663449637      1.95547416530142
  N   -0.94227828484895     -2.61152316716556      1.71181459944791
  N   -0.71182206385929     -3.74093916239034      1.15392461923287
  N   0.65360880008320     -3.81696409119646      1.00772019813606
  N   1.37222646069159     -4.84377780345048      0.40410026040208
  H   1.23493481298209     -5.70742899066851      0.93770518904005
  H   1.02088643445854     -4.97859525736479     -0.54885234013024
  N   2.55216433105470     -2.48341607376133      1.49962271587826
  H   3.10192490247198     -3.16893833935313      0.98293432662845
  H   2.87404609354092     -1.50370488858833      1.55385982987434
  C   1.23536896793240     -2.68225946911734      1.49353956403031
  N   -1.28378225680167     -1.19223025899418      4.26466251271681
  N   -2.39188210437515     -0.46609044659760      4.64808828659029
  N   -3.18454346850083     -1.18207345961881      5.35931302935250
  N   -2.58354325683357     -2.42599239818913      5.46946405105343
  N   -3.04831310761724     -3.51462615222866      6.20387869572124
  H   -3.94230988312423     -3.82237383957791      5.80900672596843
  H   -3.20356221199973     -3.21268620346866      7.17077036977339
  N   -0.59022283714660     -3.48978203118945      4.68630600237406
  H   -0.83094315966699     -4.26460234506669      5.30456166473515
  H   0.40882487887774     -3.29560722177305      4.54821425100441
  C   -1.40019799495741     -2.41989309410946      4.79907784967771
  N   1.72231288845703     -0.87765402423826      4.18330990907820
  N   2.02076784063817     -2.17917303783166      4.50074063819458
  N   3.07235177925047     -2.25564757915550      5.24038862634180
  N   3.48654535111667     -0.95330963818282      5.43407532078903
  N   4.55444828827028     -0.52751043040791      6.22099876950164
  H   5.42690536292998     -0.87994127535680      5.81504623623224
  H   4.44430053711737     -0.92040463414809      7.16104068851009
  N   2.76859158963003      1.23546916636853      4.76215816407202
  H   3.41080228726867      1.61287082206638      5.45969896062896
  H   1.90120757907012      1.75458135590266      4.61690864081745
  C   2.63798025507932     -0.10773575110769      4.79158727513765
  O   -0.03063022319544      1.10854964798785      4.01677419280641
