56
Coordinates from ORCA-job APUVAK_2_4_tpss_d4_lanl2dz_631gpol_Co2.opt
  Co  0.04342709506880     -0.33123771611842      2.85283112032180
  N   1.51398761965561      0.95894491610542      2.06477028321099
  N   2.71267483283701      0.38157404527772      1.68648177076350
  N   3.56489143026266      1.25566243338377      1.28881937995886
  N   2.92845194756526      2.47332995198571      1.40157535705853
  N   3.44617616091997      3.71894449326377      1.05723317229476
  H   4.28769873372745      3.89550712940346      1.61398034817270
  H   3.70106665899397      3.70750850542775      0.06478914081799
  N   0.81462089157579      3.27474677545119      2.18782211135954
  H   1.07963873473918      4.20160203797163      1.85551532853100
  H   -0.18812484584918      3.02202673661968      2.17877972252117
  C   1.66704715348118      2.28632723835614      1.88301995906832
  N   -1.58423144521648      0.54366658412876      1.91215321712302
  N   -1.70484982488931      1.91920805994803      1.90904661870259
  N   -2.90591841784494      2.29836455917127      1.65985227970586
  N   -3.63072380028033      1.13891682273155      1.48681730982623
  N   -4.99032791262056      1.04600596226103      1.20245513170165
  H   -5.51589959097220      1.47058844956517      1.97313239041652
  H   -5.18241694724352      1.56842662421666      0.34241381289725
  N   -3.22813046895754     -1.20867275779759      1.60883561202522
  H   -4.17310866400916     -1.37767296727389      1.27244848285523
  H   -2.51967295129920     -1.95384847602160      1.57051658868568
  C   -2.81806309468261      0.05999761162233      1.65604361587397
  N   0.30877714520890     -2.09825599219181      1.81436152291359
  N   -0.81540684409077     -2.85196694038911      1.53582901001564
  N   -0.51774905660618     -3.97511778747443      0.99016833629504
  N   0.85901534644222     -3.98565357748463      0.88936574373951
  N   1.64132167740398     -4.98163245373730      0.31079288859710
  H   1.53094534840063     -5.84599174885409      0.84977094393191
  H   1.31144766224169     -5.14362051303774     -0.64563059634813
  N   2.66533846853385     -2.52695475837308      1.45199738377574
  H   3.29306243570835     -3.14569033217152      0.94233334560519
  H   2.91247117346945     -1.53415162977733      1.56292364631353
  C   1.36386894952945     -2.82269312099955      1.38976368842207
  N   -1.32071362467446     -1.09446579202739      4.22647031359822
  N   -2.41372470137939     -0.30696122197654      4.56834664935146
  N   -3.23202178137561     -0.94801999543246      5.31840630687849
  N   -2.67972358137863     -2.20662916573244      5.50252409135541
  N   -3.19477158929247     -3.23841156774554      6.28464347391838
  H   -4.09855952306468     -3.52727866494036      5.89777653435985
  H   -3.34405650912783     -2.88340481857895      7.23416599957113
  N   -0.73594539876577     -3.38709003178242      4.77822610132795
  H   -0.99447881605730     -4.13025790578793      5.42580123328346
  H   0.25956110692496     -3.25413890584213      4.56539027012833
  C   -1.49994406424340     -2.28521916411099      4.83077615892137
  N   1.63080336119535     -0.85694795370807      4.23502080987154
  N   1.90779539169543     -2.18419543875113      4.49594562291793
  N   2.98637977241896     -2.32582116984918      5.18324220327806
  N   3.45272008414436     -1.04720638768240      5.40394128261890
  N   4.57590890908601     -0.68317496284288      6.14495730437682
  H   5.41221941607651     -1.05080043766064      5.68030984216637
  H   4.50379101764725     -1.10603259223530      7.07560619361376
  N   2.82137289332201      1.18376866459568      4.84259777023950
  H   3.52946715802838      1.48601417349736      5.51286402415781
  H   2.01002765555604      1.78916401382496      4.75915895293845
  C   2.60758722206083     -0.15227884042012      4.82512019397297
