56
Coordinates from ORCA-job BUJJAR-oxo_2_2_tpss_d4_lanl2dz_631gpol_Co2.opt
  Co  3.69631297221113      4.60916200440334     14.79366430450910
  O   4.77934393095422      5.71241703395306     16.07736797255341
  O   5.36263937055615      3.82013028838419     14.21098781163912
  O   2.79101084989239      3.61531012920369     13.70341976464135
  N   3.65813799525725      5.95305911072009     13.33383582896939
  N   2.06695259124840      5.45656942988247     15.42680472685255
  N   3.32977537087247      3.21980580134327     16.21317336065000
  C   5.94621717769150      3.96769436794987     13.10993548127253
  C   5.42953604705468      4.88488009638411     12.03271487618621
  C   4.89288114487790      6.25880303466990     12.51842603903794
  C   2.83307307322966      7.09960562170031     13.82427593810531
  C   1.58384526130602      6.46044982903927     14.42478626774602
  C   1.13815641658864      4.34096662935321     15.78066958319164
  C   1.92379930866733      3.44577457541423     16.73253966122736
  C   4.33545864333255      2.95997638740234     17.33046334815446
  C   4.63604333256273      4.29023972251699     18.06253801377527
  C   5.14911116814651      5.46347282174268     17.25062660912090
  C   7.19786155156452      3.18560122714576     12.86033623768407
  C   4.49460369026482      7.07349591311201     11.26671981278291
  C   5.93296908336156      7.01541621428571     13.35589201848435
  C   3.75465015877906      1.94138543545598     18.34055630040121
  C   5.63169850804809      2.37293465313706     16.74565013549341
  C   6.10920100059898      6.40353059074067     17.91473808808466
  H   3.04728690372767      5.35561070334476     12.74596656917044
  H   2.34001144617914      5.96015007151893     16.28170771205646
  H   3.30338473238824      2.40058498026462     15.58992539554231
  H   4.62559230438611      4.33307910322315     11.51275383573872
  H   6.22020161013498      5.04958751896550     11.29161682185970
  H   3.40759404665029      7.64972607174693     14.57801188431198
  H   2.57098002221887      7.78308738010842     13.00818177076765
  H   0.92657026882982      7.19493916841439     14.90520339761160
  H   1.01387339651241      5.91610311805864     13.66305916522507
  H   0.22469393425331      4.72246887138642     16.25603857385839
  H   0.88643364549078      3.82923367782898     14.84611643122364
  H   1.41407137222569      2.48928024809436     16.88676808496059
  H   2.00381637919349      3.94115248096144     17.70661249272215
  H   5.35335398428726      4.08628305604970     18.86773404300310
  H   3.73786202605451      4.66865178048126     18.58414498146053
  H   5.78358214907523      6.63477753282781     18.93867403824322
  H   6.23817797592684      7.31999124434554     17.33310042152611
  H   7.08160757943968      5.89276693683085     18.01210828302837
  H   7.10238184618113      2.63947523651114     11.90950018541458
  H   7.41068136276852      2.48988611499889     13.67502448390622
  H   8.03899230222778      3.88437138576262     12.72940555380734
  H   4.16697019686212      8.08448562364440     11.53487610572387
  H   3.69765834178748      6.57619169363242     10.69742089099470
  H   5.36649806209017      7.17940896615876     10.61031720481359
  H   6.83414450116996      7.17900723894024     12.75256832735690
  H   6.20560460572411      6.46395616360526     14.26202069855231
  H   5.55740768057745      8.00253530993693     13.65108666785583
  H   2.86412862876274      2.30880101270872     18.86271149579533
  H   4.51424956069313      1.71838740800274     19.09903838460903
  H   3.50552945459775      1.00042972007846     17.83302267390534
  H   6.27086615553356      2.04151229067991     17.57251965196814
  H   6.18592390296409      3.09494728536858     16.14279332716600
  H   5.41539097401879      1.49514968757856     16.12274826525613
