61
Coordinates from ORCA-job BUJJAR-CH3OH_2_4_tpss_d4_lanl2dz_631gpol_Co2.opt
  Co  3.89694435952339      4.70934791309920     14.95822171008247
  O   5.06277229958183      5.65169966735079     16.39797318840000
  O   5.71294209597170      4.07300940396519     14.16617822149050
  O   2.95959634619536      3.04947060536433     13.74878488222969
  N   3.66878867741824      5.97163000028152     13.16414094812783
  N   2.10333958300554      5.75318443302689     15.48573691947387
  N   3.20972137922379      3.44506059921386     16.61112857844805
  C   6.33867551779634      4.34964684547658     13.12152047466833
  C   5.74381344077167      5.22446169400845     12.03753596749152
  C   4.93870372897772      6.47137670774304     12.49357840435293
  C   2.66669173064323      7.03476528205489     13.48362141673495
  C   1.52506374285436      6.40363301052012     14.27930956300629
  C   1.19999625335845      4.81272660259173     16.19847910082922
  C   2.02318601854050      4.08400054146158     17.25789195957406
  C   4.27140320457131      2.95619826191766     17.57943519918452
  C   4.93633557445665      4.14743311317357     18.31277854487852
  C   5.48928222060552      5.31778132007383     17.52368399881075
  C   7.71352872521840      3.78946070553909     12.90650825594626
  C   4.60481772985560      7.29272140446486     11.23008146014902
  C   5.75780530703922      7.31366930363542     13.48639309018888
  C   3.64970306547497      2.02208903743639     18.64068730776892
  C   5.31483608451086      2.17924568752008     16.75987255488842
  C   6.57092473856797      6.13362036703632     18.17403533443888
  H   3.22299747599865      5.33646219682825     12.48788747042227
  H   2.38848988678053      6.49040239818888     16.14284328795100
  H   2.87360476433346      2.61245210092456     16.11057242310156
  H   5.09910215673844      4.57156179181302     11.42125054221797
  H   6.54880730152539      5.55512078683756     11.36993191388135
  H   3.16698368455470      7.80118543159962     14.08695137392451
  H   2.27404655919073      7.51502307291421     12.57867341588221
  H   0.76699045051303      7.15514063709904     14.53952139279507
  H   1.02771963778645      5.62176730518808     13.68787430235270
  H   0.34289966404340      5.32663190650808     16.65622844297747
  H   0.80918052344850      4.10348614893670     15.45632326723839
  H   1.39947266190030      3.35034919850485     17.78344469687680
  H   2.38348243814746      4.80721471879042     18.00001477387184
  H   5.74228640372667      3.74960401606126     18.94495650376540
  H   4.23247001350282      4.60160237646247     19.03382252876655
  H   6.35697487968550      6.29764157201080     19.23884850494692
  H   6.70888092732998      7.08723989429835     17.65732137419091
  H   7.51155934172876      5.56064421809998     18.13112598091348
  H   7.79150739655149      3.33844037173912     11.90646478184060
  H   7.97093977302304      3.05817636725399     13.67718969301592
  H   8.44192211680581      4.61606853569119     12.92484528021147
  H   4.08363949631427      8.22331833878011     11.48301716708769
  H   3.98221775541781      6.71822908534982     10.52951935933718
  H   5.52893743357609      7.57170912546917     10.70948151621505
  H   6.73121062771582      7.55541907582154     13.04172363896392
  H   5.92256632848379      6.78439742607477     14.43264686847560
  H   5.26320196986794      8.26771673802278     13.70447356631000
  H   2.93153343105513      2.54449336748331     19.28497129192193
  H   4.43457172180152      1.60901786239882     19.28588779541611
  H   3.13831574153376      1.17819040136909     18.15774143621175
  H   6.08745763239996      1.77819871898786     17.42690537128323
  H   5.79904049925307      2.80678107495168     16.00357139037079
  H   4.84428487103863      1.32243065611253     16.25710286277884
  C   3.62125054277990      1.91209448957111     13.11067311357306
  H   3.80222522869085      2.11849677255179     12.04922766836361
  H   4.56729789522674      1.78455535967932     13.63799139862629
  H   3.00396882911351      1.01435423492546     13.22071170472631
  H   2.05482011425322      3.12295971974475     13.38643481802944
