56
Coordinates from ORCA-job BUJJAR-oxo_2_6_tpss_d4_lanl2dz_631gpol_Co2.opt
  Co  3.83090873940270      4.44295797579353     14.79038286187686
  O   4.92540423454953      5.43004896115763     16.29954787918760
  O   5.76623070655719      4.15991558125828     14.13945511025613
  O   3.16784607981016      3.18013132613623     13.83561096362104
  N   3.58833373111039      5.83527445685906     13.03699342018202
  N   2.07372255727907      5.55712873941410     15.35082691124006
  N   3.09158422987882      3.28994796931554     16.58310970163106
  C   6.30509535281394      4.26245833635048     13.01768790615644
  C   5.65176665538826      5.05492275415573     11.90974890920598
  C   4.84611955213644      6.30895468208516     12.33884189658484
  C   2.59099184393943      6.88542367453555     13.38343499711322
  C   1.46626810708587      6.21929840476195     14.16611694489799
  C   1.14333577855226      4.67230050173143     16.10507021159919
  C   1.94293344205639      3.99238356721310     17.21047769163657
  C   4.19245258032020      2.79183042623242     17.48916160760667
  C   4.86328843290450      3.96478171668935     18.23722042590321
  C   5.33053329887806      5.17315046293261     17.45211416273272
  C   7.61992376033265      3.59295919439544     12.75797315404177
  C   4.46571564241937      7.06831152934903     11.04239466695480
  C   5.66009407365754      7.21523401790806     13.27767551658234
  C   3.59205357281397      1.81663565362220     18.53240086273192
  C   5.21227891358664      2.04506888771496     16.60993723541407
  C   6.29451202953181      6.10857587512035     18.12475716321480
  H   3.12517844343325      5.15790368843147     12.41647034481655
  H   2.43255768090521      6.28353484778459     15.98564867624456
  H   2.73564250827846      2.47869816422125     16.06151013310405
  H   4.99802178457134      4.34727914777006     11.36770610412381
  H   6.42341379453139      5.35533138628570     11.19027628815006
  H   3.08970275987402      7.64885980415612     13.99148996394762
  H   2.18969674068465      7.36752099701591     12.48268800639584
  H   0.70565171210210      6.95363732389573     14.46504573394488
  H   0.97878293420326      5.43983705306197     13.56717478426403
  H   0.30148607891469      5.24363254775825     16.52043864675668
  H   0.74808354181058      3.93416499610941     15.39631663478304
  H   1.30512211608013      3.29676516405712     17.77144722231166
  H   2.32978631710190      4.74035427400172     17.91341242461026
  H   5.71961341910297      3.57056866512162     18.80310091469674
  H   4.19450391992067      4.37219047403994     19.01730168383355
  H   6.05341914980515      6.23717011384658     19.18789104722567
  H   6.32705211014476      7.07436047559377     17.61297273427961
  H   7.29686806359449      5.65093157431800     18.08408833223959
  H   7.57493166483840      3.03579052041770     11.81084591688453
  H   7.89990165649026      2.92947503630307     13.57983266970811
  H   8.39207380435407      4.36755913277464     12.62519623282953
  H   3.92360688010587      7.99321774378957     11.26936921606997
  H   3.85151840013445      6.44737505148635     10.37608730084204
  H   5.37812816427221      7.34811749550052     10.50239211908517
  H   6.63614798202987      7.42788761834676     12.82462305807277
  H   5.81988467961106      6.74897138054988     14.25748847333465
  H   5.16199304301137      8.18057387824533     13.42578773991128
  H   2.86820595434966      2.31367229264849     19.18999137277840
  H   4.39462836306238      1.40981532690589     19.15972030315828
  H   3.09772894823813      0.97436943372889     18.03123555514031
  H   5.98204103176474      1.59425759452013     17.24740747566625
  H   5.70764348640621      2.71087063325093     15.89406583806563
  H   4.72438955126674      1.23431146933004     16.05293685235224
