71
Coordinates from ORCA-job BENVIZ_3_2_tpss_d4_lanl2dz_631gpol_Fe3.opt
  Fe  3.61767664527045      5.14579361609803      6.62380429850134
  O   4.29856876043266      3.38912818881193      6.76712646689100
  O   4.19507386513354      5.12082895884520      4.76535434142562
  O   5.14311395357158      6.16378107959922      7.16034627353739
  N   6.54580972942633      3.67585908666464      6.37274766291908
  N   5.46428819820371      1.67589124810885      5.81580651978123
  N   2.10640195714651      4.45924682434986      4.04165029045433
  N   4.01921906926705      4.06577461619668      2.75069166643193
  N   6.30086568213907      8.09950303411274      7.44273110634227
  N   5.29935301459321      7.64217751472190      5.38152044061744
  C   5.43955367867545      2.92105809410421      6.31156548947828
  C   4.28586749123984      0.79332150573001      5.73725143961888
  C   7.89038877945689      3.23404346212960      5.96978166102275
  C   3.44034926307557      4.56600452241859      3.84945064935721
  C   5.46999093450123      4.04243659085502      2.50736034074714
  C   1.17959659576377      3.81820367403962      3.09127153962934
  C   5.57322877652663      7.29970336900674      6.64838867894171
  C   5.77114510156237      8.87554046300530      4.73112542312763
  C   6.61301170191730      7.82394973876960      8.85479130158438
  O   2.33233051958042      6.45876718680560      6.07017688774638
  O   2.91311448037668      5.08423083909928      8.38625921958904
  C   1.38077230172494      7.16358904889449      6.64101295570168
  C   3.43977426134439      4.62587607554563      9.50053610450765
  N   0.77678031666718      6.76394779311812      7.76835678961962
  N   0.99609027228542      8.29195688861581      6.02067171798964
  N   3.91819978358167      3.37746558578752      9.56317822067805
  N   3.45253946787317      5.41977358029317     10.58528990051236
  C   -0.33535810532789      7.47336219710394      8.42121340582462
  C   1.53120648559794      8.75009904294100      4.73006223094381
  C   4.46723575850370      2.73875791166666     10.76965656106383
  C   2.90437308654507      6.78267469411837     10.63755202657557
  H   1.85631503194264      6.76960233138185     10.96247244297514
  H   3.49109926548359      7.36104741394562     11.35665253578420
  H   2.98350414573772      7.23792577431259      9.64821265805776
  H   5.98063321397931      4.19199476630404      3.46030438174177
  H   5.74072389990198      3.07255524186785      2.07889531673837
  H   5.75241267308446      4.83806586724152      1.80809072845130
  H   1.51566525824333      2.79680079493977      2.87970654046183
  H   0.19611511128257      3.76393732159610      3.56350259698271
  H   1.09343758512322      4.38959895349694      2.15643157925425
  H   7.62988289858298      7.42514237621592      8.95215551743698
  H   6.53625221994245      8.75922616603872      9.41718111666023
  H   5.89382104322363      7.09659752816413      9.23546734321646
  H   3.70157247924991      2.66261998936000     11.55297369836464
  H   4.78532248403131      1.72868071614275     10.50417918194198
  H   5.33620546889810      3.29649320172823     11.14251185594178
  H   6.76252542098406      8.89981781370510      7.01533386356600
  H   4.87087885796645      6.89983404825196      4.82362040363864
  H   3.38965750233849      1.40848244060324      5.63218954521218
  H   4.39860012176254      0.14902982904764      4.86121903598429
  H   4.20431774360337      0.16939655162474      6.63548262460395
  H   7.89253894725753      2.91698633840110      4.91901070902732
  H   8.57260455694916      4.07956758303693      6.07847334982319
  H   8.24620549708772      2.41474354465230      6.60832298080307
  H   -1.19317159798677      7.55360137580714      7.74131321640996
  H   -0.64637957690676      6.88808494826816      9.28902497803384
  H   -0.02739318747477      8.47272915319409      8.75714650965628
  H   1.02151574792901      8.25591536596493      3.89320558305727
  H   1.37011441101795      9.82877725145014      4.66157400886861
  H   2.60135567845824      8.53585919130250      4.69303335507347
  H   6.86596781568906      8.88800685776144      4.64077232798116
  H   5.34110835058631      8.91488616148390      3.72799160722236
  H   5.43093513489262      9.75575822324545      5.29064515171102
  H   1.73694949266788      5.15832747450274      4.68925576692010
  H   3.41482611816714      3.78583759508121      1.98072243179932
  H   6.37197917833008      1.25803716107735      5.62219895171377
  H   3.87126206720638      2.86453910617569      8.68534615363019
  H   3.70834078116549      4.99604125162123     11.47502230780979
  H   6.41209400857277      4.59215109363256      6.80132167867423
  H   1.20197278775973      5.95426901073366      8.21941429272884
  H   0.19246953661266      8.79108575508059      6.39469006087954
