73
Coordinates from ORCA-job BENVIZ-OH_3_1_tpss_d4_lanl2dz_631gpol_Fe3.opt
  Fe  3.70338551147174      5.12544829640735      6.62852064254839
  O   4.76732037751056      3.64038465534947      7.10557377815127
  O   4.13536293116390      4.82851311134127      4.72800849405714
  O   5.25055198334189      6.31191497649594      6.76311536330342
  N   6.91370427949549      4.08418492691160      6.38248523807326
  N   6.07815551775302      1.89925303196475      6.47858149208257
  N   1.99518473095420      4.88464705663321      3.86823378384051
  N   3.70986637445590      3.68792037134250      2.79816436220489
  N   5.99454820803545      8.46414780132140      6.72481385920987
  N   5.33165918968964      7.41996993710589      4.74227550518414
  C   5.91912211588245      3.22396725051130      6.64707221560621
  C   5.02161645937889      0.91531619511734      6.77020880718409
  C   8.27736328026425      3.70138028428886      5.99147419990902
  C   3.29899699086832      4.47251992580851      3.79607649270180
  C   5.05009204041676      3.08457031992717      2.70129469825788
  C   1.00023032730613      4.62404108580495      2.80300865529566
  C   5.51162783306456      7.39190139996176      6.07185796517718
  C   5.65177035768546      8.55633959839502      3.86841247385592
  C   6.25688989597789      8.49096803611597      8.17384259593001
  O   2.66081611621365      6.65136404690121      6.15035470186195
  O   3.43235119582697      5.48701655354897      8.44813175078384
  O   2.26443329276701      4.02635269850701      6.58871526273037
  C   1.62217183879574      7.09050114011273      6.83837445103599
  C   3.22991086239411      4.62270441919997      9.41726056613039
  N   0.80724697710842      6.24198275223300      7.48030563659851
  N   1.38843186861251      8.40979418028370      6.82560358334337
  N   2.77839667264806      3.37881867976417      9.18877285487603
  N   3.45193288082532      5.05587826775151     10.66779274001901
  C   -0.39121327654564      6.63448646659827      8.23473835937971
  C   2.24382607699655      9.38702463624923      6.13272314523739
  C   2.51205226815973      2.38634666317094     10.23805228358854
  C   3.96969936529538      6.39310826951511     11.00000977717848
  H   3.78490213901039      6.56686167178336     12.06235361838473
  H   5.04752863617050      6.44821339314362     10.80705584617713
  H   3.44489391528310      7.15091996986620     10.41181460802086
  H   5.49762244657104      3.07328465846849      3.69603076106118
  H   4.94464355577891      2.06333523113379      2.32398021327593
  H   5.67742003967552      3.66452490836325      2.01441744078190
  H   0.89532591923787      3.54350555395033      2.65619780172092
  H   0.03793375203238      5.01677840918470      3.13904768616737
  H   1.27500086246015      5.11383985072578      1.85891908050705
  H   7.31156621456302      8.27171764316334      8.38004523747900
  H   6.01351686029489      9.48757248266336      8.55327276969781
  H   5.62184859468872      7.74148301597054      8.64857222419389
  H   1.73549627846014      2.74171146612917     10.92929368129650
  H   2.15432817464017      1.47342360686322      9.75763673585782
  H   3.42934395811262      2.15536267532999     10.79662142082919
  H   6.37140208779365      9.23101715264696      6.17128505249655
  H   5.00837846170984      6.53543178887734      4.35153814691371
  H   4.05953485121937      1.32279672999825      6.44979322642838
  H   5.24227560455617      0.00544825192793      6.20652050188659
  H   4.98883195253317      0.68125055172819      7.84125037525457
  H   8.25486431555315      3.08445283072996      5.08402197983047
  H   8.83919120539418      4.61311775363927      5.77817429124725
  H   8.78641569107309      3.15779178017379      6.79936830300637
  H   -1.13964721322537      7.09403159707157      7.57509055604048
  H   -0.82524652672278      5.73418611746823      8.67422329653074
  H   -0.12688336732425      7.33089476178101      9.04170305385422
  H   2.24458770043587      9.20630293309531      5.05190483989684
  H   1.83646138468292     10.38047348634849      6.33119079283024
  H   3.26498757986315      9.32853860429766      6.52149642982256
  H   6.73079098888607      8.76272812347075      3.86283071978780
  H   5.34436621087180      8.30346389287474      2.85150612815330
  H   5.10504424209688      9.45390124255807      4.18549813696821
  H   1.91430024807732      5.76910426652501      4.37759050873390
  H   3.08471173369619      3.55768191513999      2.00461156033090
  H   7.02560642286486      1.54348694763543      6.36832684899563
  H   2.59427487466399      3.15160847907452      8.20993530000103
  H   3.27390914946754      4.41410075897946     11.43572897990548
  H   6.69327077867351      5.05114716684972      6.62633362729612
  H   1.07764093517409      5.25504845539378      7.40066534897279
  H   0.52124607514541      8.74628743131786      7.23665430469634
  H   1.87579872204581      4.03651540901666      5.67398282933040
