73
Coordinates from ORCA-job BENVIZ-OH_3_3_tpss_d4_lanl2dz_631gpol_Fe3.opt
  Fe  3.70829445549737      5.12096230685765      6.65139061561859
  O   4.79154292384086      3.66885117432028      7.18349809264085
  O   4.16638255073385      4.77713687113993      4.75716434304925
  O   5.25830099324332      6.30355353840638      6.76581749838173
  N   6.93381161266077      4.06985566269633      6.42585990901174
  N   6.02763086139081      1.91221972457073      6.44711884651026
  N   2.03798900194168      4.87568244662958      3.86615599622279
  N   3.75324591075014      3.66624197159653      2.81090345999372
  N   5.97410719832322      8.46736714914151      6.72846193966681
  N   5.30153069421258      7.42063725176358      4.75095407529969
  C   5.91721745266601      3.23487371225426      6.67348409750258
  C   4.94784252893723      0.95058397059658      6.72771537440528
  C   8.26258512224401      3.66578554458882      5.94555866582111
  C   3.33657166145203      4.44830905731142      3.80920756573521
  C   5.08725457901912      3.04498098294132      2.73764417424540
  C   1.05247600732263      4.62963054856230      2.78908626961726
  C   5.49683607195322      7.39126240570953      6.07774229690564
  C   5.59693915191406      8.56296846950880      3.87526761722854
  C   6.24625696200365      8.49769584363840      8.17548675259529
  O   2.64669210194998      6.63377509470037      6.13446352388509
  O   3.37923110742202      5.52013281353301      8.44560075857921
  O   2.28596698322598      4.00588419492649      6.58032937123064
  C   1.60096981841910      7.06818898236134      6.81703120397708
  C   3.23032204406161      4.65661996905618      9.43137191763234
  N   0.75823670513509      6.21386579617621      7.41009240317842
  N   1.38734105622949      8.39176813618982      6.84542041806854
  N   2.79275441811251      3.40720064030743      9.21929301501516
  N   3.47566580471507      5.10340837365815     10.67115288365390
  C   -0.42676195170217      6.60300442669481      8.18853565664536
  C   2.24972770145924      9.37911590426689      6.17727777795054
  C   2.57862766680638      2.41074724415646     10.27801822689995
  C   3.97407935207059      6.45078394918520     10.99259809888222
  H   3.65407098925039      6.69511513529568     12.00840455152817
  H   5.06916435503704      6.47970181062993     10.94141486508654
  H   3.54606626511201      7.17302052095355     10.29350962551115
  H   5.44681430049025      2.86601505003740      3.75255255658728
  H   4.99164070094284      2.09629091991727      2.20300399446345
  H   5.78588888380991      3.69719215199797      2.20030973373037
  H   0.94437111443840      3.55107938548704      2.63057181611088
  H   0.08893584171383      5.02369318750976      3.11999002470842
  H   1.33878367269910      5.12732251443379      1.85261632625840
  H   7.30961999045305      8.31474954745237      8.37186153216540
  H   5.97099652228504      9.48326153485096      8.56230859111877
  H   5.64239094372369      7.72384472868800      8.65143469714557
  H   1.81371592505699      2.75102868507696     10.98908834360069
  H   2.22641848436648      1.48993876078527      9.80882946284559
  H   3.51670474355992      2.20179157464906     10.80980893006766
  H   6.34520040960516      9.23515269194631      6.17203140684208
  H   5.00443930171700      6.52787709117703      4.35984600494371
  H   3.99043487863107      1.40723848672464      6.46618453546255
  H   5.11500817863419      0.06464066807061      6.10978128783200
  H   4.94722851893355      0.65990844593714      7.78543220002517
  H   8.17573100262247      3.10160942060962      5.00806904386894
  H   8.84602123069529      4.56914563587262      5.75625198467242
  H   8.78926884498300      3.06201379644301      6.69700890279667
  H   -1.16308797663564      7.11259910656007      7.55302592906155
  H   -0.88550783057933      5.69414219225490      8.58302523690927
  H   -0.14421702635909      7.25233599474119      9.02789986676877
  H   2.14843557038636      9.31622860327921      5.08716407551943
  H   1.93662006384021     10.37069137710174      6.51136736988737
  H   3.29018355235206      9.20975428930750      6.46654769510987
  H   6.67382114588889      8.77859272318467      3.85020425082020
  H   5.27225236859679      8.31122346775651      2.86345443084937
  H   5.04785797340732      9.45382096220224      4.20599549587677
  H   1.95694122417579      5.75436272295156      4.38710551114886
  H   3.14661208851570      3.56357634532041      1.99929401407138
  H   6.96217182945517      1.53025942867810      6.31301215490135
  H   2.60649471528419      3.16485550318430      8.24514802343241
  H   3.32235689885374      4.46300772478971     11.44605763464609
  H   6.74509914592784      5.03704942201445      6.68934689461022
  H   1.03751904864586      5.22973136104287      7.34000656243919
  H   0.50567339707243      8.72238241554551      7.23056819181357
  H   1.90718016439916      4.01677045809219      5.66110339871165
