71
Coordinates from ORCA-job BENVIZ_3_4_tpss_d4_lanl2dz_631gpol_Fe3.opt
  Fe  3.66001506246942      5.04210439895726      6.52281557707950
  O   4.37115975334855      3.36042218023626      7.17698647534512
  O   3.84108978266894      4.26375037328749      4.78722500757103
  O   5.38319737483239      5.99961998084493      6.34787866243068
  N   6.39495132119963      3.24118760990146      6.09203491216645
  N   5.16940342141021      1.30684675629374      6.56288594148247
  N   3.15099200368824      6.08683708311781      3.52001503910724
  N   4.10450102894348      4.17887750857392      2.53662244683551
  N   6.55685375633768      7.85743031948095      6.97566393576465
  N   4.93653204208234      7.98598681011169      5.28981325807257
  C   5.30656533142775      2.64063062330621      6.59747773099961
  C   4.03405573393195      0.57374314513026      7.14902282869713
  C   7.52753870789051      2.54215888326555      5.46848770666799
  C   3.68766674475737      4.82864407607711      3.62609030893673
  C   4.76687200217916      2.86392679986826      2.53392016390955
  C   2.81561947001439      6.67876915039654      2.20374798794342
  C   5.62902030364702      7.27170662161727      6.20411445774540
  C   5.20214528236399      9.39942091826938      4.96995384435612
  C   7.31822309701907      7.16053191214493      8.02405634949440
  O   1.93868998103634      5.73750817093582      5.99553231187664
  O   3.31154309651723      5.79633594477568      8.21021997137386
  C   0.89767637822243      5.93184670021584      6.77092362496540
  C   3.81381775855661      5.59201978386370      9.40674220639080
  N   0.26401117134072      4.87545367713007      7.30623056367046
  N   0.46479146574209      7.18076089773753      6.99696774850702
  N   4.50499942486280      4.48811261045300      9.71409025337815
  N   3.60609974626687      6.55875791880464     10.31674458976215
  C   -0.95707487733720      4.95356403702390      8.12812482755587
  C   1.12058848190385      8.38214970337719      6.46167715525212
  C   5.04876734984066      4.18747307276691     11.04847596500749
  C   2.87614544938435      7.80164414169525     10.02730211722077
  H   1.80699085726861      7.60529395889492      9.88490116294029
  H   3.01173384159678      8.47365372010056     10.87746497231989
  H   3.28713624971889      8.26705651052170      9.12635799626880
  H   4.78495447611663      2.48405970172785      3.55568307192106
  H   4.19818721644251      2.17986367235927      1.89588321275511
  H   5.78540263294626      2.96729274974438      2.14310791663785
  H   2.09788888547238      6.06198212019287      1.64502297480829
  H   2.36732442501813      7.65935323830509      2.38181904666383
  H   3.72947120723328      6.82275135687517      1.61623134407942
  H   8.30907783783369      6.87262268179771      7.65275676886939
  H   7.43468443918625      7.83339372862320      8.87885304812151
  H   6.76204735190566      6.26958258831062      8.32254342750044
  H   4.24468850942289      4.04682481362398     11.78323449298769
  H   5.62237523154156      3.26095050517833     10.97881326286516
  H   5.72306608187217      4.98848698093671     11.37682089565562
  H   6.85440916034793      8.80128249979356      6.73711572995495
  H   4.43863747538466      7.41390519793622      4.59937968109429
  H   3.15468688561307      1.22035784480312      7.13686304327521
  H   3.84694281681904     -0.31433596908608      6.53947851212049
  H   4.25829138541669      0.26822112148262      8.17826560336397
  H   7.19626821320594      1.95315136700968      4.60286827226042
  H   8.24379974395012      3.29247421825704      5.12746748649413
  H   8.03154489697948      1.88806889546907      6.19206379830754
  H   -1.81249304928867      5.31071843609069      7.53868777842148
  H   -1.18162072779335      3.95137993708566      8.49858194116170
  H   -0.78455812797606      5.61295553332817      8.98716991613205
  H   0.75105416636149      8.61225708833449      5.45412475828898
  H   0.89083622316754      9.22094025841302      7.12413843229814
  H   2.20052886621986      8.21718546937087      6.43760768721981
  H   6.20282405475380      9.53702545213055      4.53733668593329
  H   4.45899042898174      9.72801773890031      4.23984434695383
  H   5.09425929859368     10.01653915203927      5.87013583906858
  H   2.46518303505447      6.24986721480892      4.26664053310614
  H   3.89610035264209      4.58917419302342      1.62866969330487
  H   5.96694457477583      0.75372066896322      6.25600605881991
  H   4.54045222117420      3.78523144641044      8.97146635968865
  H   3.84805291902090      6.36507516724294     11.28522156431704
  H   6.38689817669112      4.26114320139661      6.13503035073485
  H   0.53647963934194      3.97042755295387      6.93257062718399
  H   -0.46119951956322      7.29862617698792      7.40372773653298
