71
Coordinates from ORCA-job BENVIZ_3_6_tpss_d4_lanl2dz_631gpol_Fe3.opt
  Fe  3.75583266223137      5.46471890075352      6.72305789142450
  O   4.11551330031171      3.53255255189700      6.81097626882488
  O   4.24659377401051      5.42930659070539      4.75103492831918
  O   5.43801143714594      6.35290611923211      7.08019232848434
  N   6.33592004866339      3.43392307492012      6.21727935927912
  N   4.90033481039100      1.62915687514303      5.82663313242174
  N   2.33990027746247      4.52993977476944      3.83564120217859
  N   4.35661867413312      4.53140581415896      2.65275703480503
  N   6.85738470020828      8.11717177065726      7.37229141161326
  N   5.77138311880854      7.79924598622715      5.32423374159358
  C   5.11507984996451      2.87071934491585      6.28419302748032
  C   3.59288547446915      0.95088164253523      5.87305994516228
  C   7.54824132790849      2.75902664173040      5.72646444294499
  C   3.64859401627764      4.84503715380474      3.75079409419406
  C   5.79344690199677      4.79733761751465      2.49684345796889
  C   1.55736753467760      3.89591517265812      2.76339140298849
  C   6.02207311328792      7.42302999542273      6.58883822102565
  C   6.36974401817355      8.97046511042320      4.66392221632216
  C   7.13775455306222      7.80662317901719      8.78327217962610
  O   2.04939516458719      6.23238587891855      6.18131880962669
  O   3.20157438589209      5.48834852140002      8.62696689989117
  C   0.97403971516416      6.78459410252050      6.70047163005237
  C   3.62538575519425      4.93177894634218      9.73376491084623
  N   0.66783704011090      6.59638636975226      7.98957977274488
  N   0.19245754367737      7.52795563805713      5.90277337864356
  N   4.01470852352139      3.64768745615876      9.72786191310565
  N   3.65446029719346      5.65670775420542     10.86400046756759
  C   -0.50369653743646      7.17082529439727      8.66927113086460
  C   0.45334863036458      7.79579751889288      4.48085707440711
  C   4.41558830970048      2.88034740086371     10.91789539992342
  C   3.22009970502431      7.05778435112045     10.97087891367656
  H   2.20745956368286      7.11723059433148     11.38893045056241
  H   3.91001658127330      7.59088275777181     11.63158742625898
  H   3.24001781878647      7.50935336135819      9.97675169092073
  H   6.25067318986505      4.82977287366669      3.48836803882278
  H   6.23714679319677      3.98892130978621      1.90855454590342
  H   5.96070338292358      5.74971774579503      1.97829969540007
  H   2.02160657706507      2.94649377259085      2.46991137889752
  H   0.55942959884613      3.68142204506664      3.15232171017236
  H   1.46177512332389      4.55177886731633      1.88657032393552
  H   8.11328639404590      7.31549221262543      8.87851717838532
  H   7.14354191523882      8.74050725232031      9.35324823346116
  H   6.35240476927964      7.14655702756522      9.15633680882865
  H   3.59620099251125      2.83001415007113     11.64714999492415
  H   4.65803457399772      1.86407575263243     10.60086761910102
  H   5.30707795653677      3.32242929768053     11.38122153396214
  H   7.37615750796672      8.88656457024565      6.95383795873763
  H   5.23386662897333      7.12054882629238      4.77946917787894
  H   2.80395581203209      1.70430380163763      5.82527517245653
  H   3.52264361316129      0.28317700776981      5.01019419224764
  H   3.49125186551496      0.36311851128647      6.79333853031934
  H   7.41006020619839      2.42908778196908      4.68887073655980
  H   8.37210543520967      3.47509211723155      5.75648706853393
  H   7.80998802788659      1.90137313520326      6.36039377400323
  H   -1.43306530572520      6.81309779006570      8.20777079713254
  H   -0.48971527242976      6.83533633657552      9.70825977148024
  H   -0.47036862151174      8.26834906961634      8.65127085789472
  H   -0.13508079469416      7.12246071358983      3.84500198783042
  H   0.17127844185555      8.83010508738005      4.26479680645887
  H   1.51961326692564      7.66107100044771      4.28692581838607
  H   7.45458133320710      8.84951474259094      4.53939003553257
  H   5.91313682793724      9.07268135787179      3.67719848804325
  H   6.15590054419330      9.88050493850148      5.23807617803040
  H   1.85368703265701      4.99378344177696      4.60425310530427
  H   3.85220616385282      4.20060180933733      1.83351180667003
  H   5.70503752719005      1.07340042477872      5.54523490243443
  H   3.91391618162535      3.18396061818403      8.82586345506818
  H   3.89785070322951      5.18050492439209     11.72992131112782
  H   6.41335491591529      4.35676040304194      6.64171528243142
  H   1.36659150160661      6.07044147856462      8.51671364362047
  H   -0.66140689952945      7.91434854195474      6.29887592427308
