45
Coordinates from ORCA-job AHAJOK_1_6_tpss_d4_lanl2dz_631gpol_Co2.opt
  Co  -2.39414805416450      6.22179018999073      3.29086762752387
  Cl  -0.46014474373030      7.12607388768651      3.96463234750549
  N   -3.65139759023937      4.58223953300375      2.52266109992940
  N   -2.51359565563329      4.94886696165401      4.96973898071503
  N   -4.09032910976327      6.95501189912839      3.89998855479615
  N   -2.42632214596616      6.57867342175034      1.23369735000846
  C   -3.60200418679069      3.43003742891648      3.46586198261297
  H   -2.71818494588386      2.83360966518912      3.19727492509870
  H   -4.49232600413918      2.79363304320707      3.35902148360315
  C   -3.44319296229528      3.95029775960224      4.86305334097316
  C   -4.08130173893702      3.41964916502274      5.98411052607447
  H   -4.81288976913541      2.62410721667173      5.85789608496807
  C   -3.77021965075810      3.92156721651115      7.25193873180697
  H   -4.26076051009457      3.52646204907507      8.13815892046131
  C   -2.80119369634518      4.93609774728555      7.35809003230649
  H   -2.51040854076635      5.34222890141925      8.32339932496826
  C   -2.19867745600785      5.42499190302918      6.20380272255431
  H   -1.44273336604336      6.20496687186050      6.23157598971709
  C   -5.01842287078191      5.21528099117259      2.49611336992393
  H   -5.80041356498069      4.44650633767998      2.42002966883443
  H   -5.04373803549987      5.83566797409798      1.58533276232074
  C   -5.17490376862107      6.05776306501950      3.71584463183434
  C   -6.25575907536899      6.05091096367532      4.58713770659723
  H   -7.06686628335443      5.34405251294456      4.42026307510474
  C   -6.29911417826265      6.95116899117179      5.65945886714052
  H   -7.13898728272592      6.96336510175507      6.34782851897141
  C   -5.20862916174086      7.88329873712360      5.81931190516332
  H   -5.21136127514399      8.60403749868437      6.63288724657063
  C   -4.15404855032897      7.85983380229017      4.93724156042595
  H   -3.29999832305675      8.52719222251672      5.03056619655277
  C   -3.12439695001534      4.25686063663122      1.17328270555565
  H   -3.82295403734173      3.63123386046812      0.59664017635064
  H   -2.19987743821881      3.68098993436147      1.32284412283940
  C   -2.82107166390014      5.53894004065716      0.44400982932418
  C   -2.91939781106475      5.65854900215509     -0.94130448902266
  H   -3.24150254148763      4.80780488319316     -1.53728007364877
  C   -2.60288160349038      6.88499624962105     -1.53367703673871
  H   -2.66261861949162      7.00880647670708     -2.61263150130205
  C   -2.24181153334303      7.95956916661982     -0.71513520557603
  H   -2.02855455573991      8.93666844098399     -1.14115160530088
  C   -2.17135186890340      7.79749119552397      0.67527201076453
  C   -1.83493236560543      8.95292370199133      1.57649126953286
  H   -2.48730804332837      8.96798435621209      2.45931151758336
  H   -1.95297908753914      9.89869850999388      1.03706476282273
  H   -0.79848938397023      8.88090048574478      1.93387798175220
