47
Coordinates from ORCA-job AHAJOK-OH_1_3_tpss_d4_lanl2dz_631gpol_Co2.opt
  Co  -2.21467183627011      5.89349746779904      3.33765236383073
  Cl  -0.71126094860297      7.27448961890848      4.40285623055583
  O   -0.88816750549130      4.86836969754833      2.78478969696574
  N   -3.54866691229167      4.46688489466604      2.63528342792908
  N   -2.60976038026531      4.76988660320206      5.18810199375524
  N   -3.84346236124842      6.87623538193520      3.93087797028655
  N   -2.63883841399601      6.59987445557312      1.30864987812387
  C   -3.36720622609267      3.25117340889574      3.47669865247055
  H   -2.40960450606254      2.80883140835662      3.17373159194291
  H   -4.16947382499461      2.52188263603046      3.29046287459562
  C   -3.28067606974328      3.62556213317258      4.94079912923816
  C   -3.77765255500529      2.82594398770107      5.97292575566763
  H   -4.31884009220667      1.90930932404062      5.74679192480051
  C   -3.55126361094550      3.22512720185202      7.29693709866635
  H   -3.92372170309723      2.62088487368970      8.12147268661249
  C   -2.84090680500498      4.40543481930373      7.54424496130943
  H   -2.63997028529268      4.74130189052073      8.55839085301952
  C   -2.38910710338559      5.15886157801450      6.45607045392816
  H   -1.83099209704328      6.08627963716730      6.56816867488795
  C   -4.92803279731567      5.04267919476539      2.72506131914079
  H   -5.64308593056862      4.26677067525218      3.03170416656628
  H   -5.21716865662739      5.37206186354764      1.71768826423563
  C   -5.00625161006448      6.23584304474195      3.65040812393856
  C   -6.22728129094331      6.70024780129511      4.14720791048129
  H   -7.14435562423010      6.16203660855164      3.91740853490087
  C   -6.24931204670612      7.85784759349692      4.93223837351759
  H   -7.19038305339744      8.23462062848454      5.32701299933652
  C   -5.04521861526153      8.51733403421165      5.20406018238957
  H   -5.01587441758543      9.41937006336648      5.80940846383278
  C   -3.85784478514588      7.99149645965538      4.69542163215492
  H   -2.88315581347725      8.43216151401922      4.88986122679503
  C   -3.14579503825846      4.22869846748251      1.22250749560429
  H   -3.86890558665746      3.58041407912944      0.70475317625321
  H   -2.17153923603935      3.72649538646605      1.25326800659803
  C   -3.00020650681442      5.56051434412057      0.51942738556429
  C   -3.19236339104171      5.69385548138020     -0.85574280431595
  H   -3.49113644337217      4.83519892586011     -1.45318076766543
  C   -2.97722936779155      6.94845828122309     -1.43715939675098
  H   -3.10429453575018      7.08931442042186     -2.50847568108333
  C   -2.60722866450408      8.01790918344467     -0.62098045601346
  H   -2.44163194006832      9.00739089099808     -1.04013106062460
  C   -2.45074199700099      7.82791006307119      0.76308210908969
  C   -2.09619909929251      8.96742331765168      1.67654267203153
  H   -2.97394154637781      9.26485933879974      2.26903479555978
  H   -1.76771231811528      9.83787010575850      1.09902156595523
  H   -1.30817408523991      8.67461781672123      2.38018568520391
  H   -0.08424236531215      5.16745939770511      3.27286985871733
