47
Coordinates from ORCA-job AHAJOK-OH_1_5_tpss_d4_lanl2dz_631gpol_Co2.opt
  Co  -2.08691019173416      5.87789597271641      3.30908777112216
  Cl  -0.69821835590652      7.43206424135545      4.34243961815977
  O   -0.80660439484818      4.69146775468428      2.76230309122327
  N   -3.60904537143891      4.47743056756948      2.59657446427829
  N   -2.55693118325082      4.80595825091991      5.13128984859999
  N   -3.94236266195120      6.87344036746332      3.94462741258602
  N   -2.54545254529331      6.59429930706585      1.29540927956462
  C   -3.46480840902054      3.28772658696908      3.47538058133969
  H   -2.54169209674906      2.77818041644359      3.16951712433869
  H   -4.30810618182574      2.59217706003181      3.34652199811628
  C   -3.31837365543524      3.70727047665894      4.92358054377520
  C   -3.86285797326582      2.98488813612163      5.98785720478297
  H   -4.47776355034317      2.10807383798252      5.79553604398517
  C   -3.59357215825217      3.40553104744199      7.29698872347673
  H   -4.00529300130396      2.85893071088439      8.14282034445136
  C   -2.79148525260455      4.53352651034686      7.50064907616393
  H   -2.55578785355146      4.88675641357902      8.50121393771710
  C   -2.29406408003308      5.21536291787352      6.38606664843852
  H   -1.67275135001689      6.10504411686078      6.46570216479440
  C   -4.96861042772412      5.08098706612715      2.64965663409985
  H   -5.72490956876517      4.30587152308016      2.84195329596196
  H   -5.18109614825441      5.50263229891386      1.65757339806779
  C   -5.07837360824257      6.19872464844820      3.66606421745569
  C   -6.30624461386442      6.56068053883754      4.22959789407651
  H   -7.20316508096757      5.99144329881227      3.99358318976688
  C   -6.35870124314963      7.66259502422793      5.09037316126210
  H   -7.30273255992409      7.96339846304981      5.53977070629197
  C   -5.17993898431544      8.36469776398225      5.36714743414969
  H   -5.17518551262371      9.22496946491545      6.03148665797666
  C   -3.98857019573875      7.93152327232034      4.78250395979278
  H   -3.03181330228366      8.41074440665055      4.97917940264843
  C   -3.16624689574943      4.23387756173179      1.19898818046803
  H   -3.88726104360003      3.61377782837174      0.64418161659741
  H   -2.20782974065020      3.70333169196380      1.25479781401755
  C   -2.96058039490426      5.56640509407056      0.50877441717825
  C   -3.17203785064190      5.71405441865413     -0.86194210053361
  H   -3.51481206286060      4.86840738873950     -1.45400093152560
  C   -2.93049927457137      6.96241529106449     -1.44583732587562
  H   -3.07612651393388      7.11061908823138     -2.51378793340386
  C   -2.52077826665317      8.01864318048107     -0.63282000796108
  H   -2.34186660853102      9.00641812526019     -1.05014266168316
  C   -2.34046512763581      7.82004829695244      0.74714245473037
  C   -1.92279001375607      8.95025589328094      1.64362281706250
  H   -2.58998214354680      9.02267752000502      2.51081656002745
  H   -1.94325355307263      9.89909123064777      1.09736734483547
  H   -0.91165657532688      8.78356789955389      2.03586908643030
  H   0.07405757811263      4.90280702865654      3.14192484117086
