51
Coordinates from ORCA-job AHAJOK-CH3OH_1_2_tpss_d4_lanl2dz_631gpol_Co2.opt
  Co  -2.50621754347592      6.04510004446465      3.38118990774686
  Cl  -0.82490752464149      7.45337598527291      4.11613006382013
  O   -0.60277643462588      4.82651053387714      2.65232360531569
  N   -3.75392246044182      4.64190797486202      2.71216335568712
  N   -2.59709164227219      5.09667690289639      5.07455780597524
  N   -4.26336017151604      6.99204592852850      4.02430032294857
  N   -2.64094039161227      6.69645353468721      1.51861837576792
  C   -3.65020188022353      3.47116858034809      3.63500367540295
  H   -2.82086646422486      2.84797402419215      3.27542847858140
  H   -4.56247746520615      2.85871239783467      3.60808066634825
  C   -3.33356015241461      3.95019842112637      5.02760562696781
  C   -3.69480870848539      3.25394691715363      6.18060680052654
  H   -4.29044131203239      2.34723304451952      6.09971034394194
  C   -3.27358720617202      3.73468506395339      7.42677753848822
  H   -3.54054480653034      3.20743013258446      8.33989939682506
  C   -2.50825942007727      4.90445945658327      7.47054908201920
  H   -2.15672034410504      5.31464956125542      8.41377987121213
  C   -2.19569494966005      5.56379892425019      6.28037635185224
  H   -1.61022428757275      6.47862207139311      6.24845361259853
  C   -5.14404633470500      5.20758420640154      2.64019389977033
  H   -5.88568839745228      4.40564002106162      2.76109475668393
  H   -5.26808848106353      5.62037119763120      1.63006556169903
  C   -5.37114151942856      6.32299009140620      3.64337073245200
  C   -6.64769664818051      6.71054790965943      4.06238713736415
  H   -7.52749363076756      6.16408858307616      3.72754063715614
  C   -6.76731500905625      7.80679546838970      4.92554260798988
  H   -7.74818266266097      8.12676839064320      5.27061058537246
  C   -5.61137027481581      8.48018709917234      5.34055027133497
  H   -5.66505037931682      9.33096131109962      6.01532426787889
  C   -4.37384520987496      8.03829265862188      4.86710159107763
  H   -3.43310020197099      8.51152998862926      5.14479125094920
  C   -3.21415872144931      4.34668729988540      1.34704894453831
  H   -3.90473281195952      3.71994076292268      0.76245455391053
  H   -2.26663739135865      3.81598693589811      1.48839371880670
  C   -2.95496506368524      5.66731204250670      0.67008148889642
  C   -3.05027843550267      5.82214415932466     -0.70908177156857
  H   -3.30948246657698      4.96997669731803     -1.33304065151068
  C   -2.81280239199623      7.08656048146418     -1.25976206146181
  H   -2.86136368979591      7.24392002413592     -2.33490285899094
  C   -2.55790715992871      8.14723269118969     -0.39454133647268
  H   -2.41641970966278      9.15463823867738     -0.77833907940949
  C   -2.49459560328162      7.94934444921574      0.99697647850439
  C   -2.30106362800151      9.13126297450640      1.90312725351794
  H   -2.87857959551699      9.01360539624380      2.82378484162972
  H   -2.61717348671148     10.04384980516705      1.38415767192961
  H   -1.25047639186481      9.23523927797165      2.19889004717072
  C   0.12358447704477      4.10630928728106      3.67930511950984
  H   0.22069370237926      4.72167885099456      4.58187176508692
  H   -0.45477541422226      3.20455926034293      3.90324291727882
  H   1.11413257673532      3.81788682691709      3.30646957350774
  H   -0.18990688006107      5.72253811246102      2.61179520337174
