46
Coordinates from ORCA-job AHAJOK-oxo_1_6_tpss_d4_lanl2dz_631gpol_Co2.opt
  Co  -2.03323160940281      5.97636132745439      3.33555503330512
  Cl  -0.78766042673270      7.55309903707205      4.43302852147226
  O   -0.79644810999746      4.88139385358412      2.80569583017295
  N   -3.54761489632560      4.52032887876000      2.61540981087783
  N   -2.53909491009688      4.86395072365987      5.13510403839478
  N   -3.96790474995034      6.94972169856171      3.93707265321193
  N   -2.48408882304229      6.59449307489487      1.28100443779825
  C   -3.40203640393613      3.32786487458524      3.48886716188644
  H   -2.46986249672628      2.82731198618084      3.19426145944478
  H   -4.23637613413613      2.62484454589935      3.34356752653937
  C   -3.27787808065019      3.74938003981010      4.93248271843343
  C   -3.81360876974048      3.02035541847790      5.99618751297023
  H   -4.40918067158674      2.13102844897656      5.80138051522217
  C   -3.56019024609970      3.44950956032385      7.30494830959592
  H   -3.96407814529407      2.89781418389574      8.15113640313123
  C   -2.78092339329766      4.59323966255507      7.50561851810667
  H   -2.55351330758475      4.95656091407588      8.50446832708107
  C   -2.29068545907864      5.28107907487324      6.39228229615524
  H   -1.68675367801831      6.17993545182113      6.48185508514620
  C   -4.91540937379160      5.10916306598218      2.65141617282828
  H   -5.66513797654886      4.31930481760854      2.80599790309213
  H   -5.10515796273837      5.55046314580848      1.66338746877732
  C   -5.06599638359552      6.20313922661553      3.68833483509423
  C   -6.29937052047751      6.46895885925870      4.29131395835703
  H   -7.15978227284316      5.83827023060769      4.07593724784826
  C   -6.40516903756161      7.55765425130803      5.16442955239762
  H   -7.35392962988052      7.78640725764373      5.64540779021470
  C   -5.27159876457947      8.34000120966510      5.40994754629298
  H   -5.30720255604002      9.19514305701570      6.08016279435191
  C   -4.07073415647513      7.99437772164952      4.78533140833722
  H   -3.14722844757503      8.54129642691072      4.96338404893506
  C   -3.10298693609537      4.24930313758459      1.22088403313746
  H   -3.82197379634816      3.60933775305089      0.68641863308902
  H   -2.13992666233344      3.72724067025525      1.28816420102108
  C   -2.90959964447923      5.56461610879169      0.50607570409585
  C   -3.13822470477773      5.70580240211326     -0.86189702081469
  H   -3.49069998011246      4.85835864960933     -1.44540758449402
  C   -2.89856079158577      6.95101795818689     -1.45401669985215
  H   -3.05647931851678      7.09544342532806     -2.52068141175809
  C   -2.47206312728289      8.00807361350674     -0.65124911844752
  H   -2.29272917589410      8.99300929371500     -1.07495800125311
  C   -2.27506499688624      7.81662990432655      0.72813996379570
  C   -1.83350449038162      8.94959718735781      1.61031045087048
  H   -2.47187372009549      9.02053781493004      2.49860865702639
  H   -1.87418418073828      9.89699267338509      1.06296809597855
  H   -0.80558108066834      8.78938738232267      1.96166321213234
