51
Coordinates from ORCA-job AHAJOK-CH3OH_1_4_tpss_d4_lanl2dz_631gpol_Co2.opt
  Co  -2.39787446310725      6.25687875293594      3.41993515548924
  Cl  -0.85938322607250      7.73669108163631      4.40414052300031
  O   -0.57162857001371      5.19112126296384      2.69243526573673
  N   -3.75408835507665      4.68870579696023      2.68119381561332
  N   -2.59203757068866      4.98794182241830      5.17149885915357
  N   -4.22679077605917      7.04165219262644      4.09084567601499
  N   -2.58987326921075      6.71947712752582      1.31233839811780
  C   -3.69949832980465      3.52079612476053      3.59798112157141
  H   -2.85538372429912      2.89515164589037      3.27640128501913
  H   -4.61041047800635      2.90741319562481      3.52013956941420
  C   -3.45206864935580      3.95261654792772      5.02879605605765
  C   -4.00321554329166      3.29086533680168      6.12814625443248
  H   -4.69607536710057      2.46510229507477      5.97861256452515
  C   -3.64098223464228      3.70564651370666      7.41648063234418
  H   -4.05648063219724      3.20786480501475      8.29021421076494
  C   -2.74151946739108      4.76748232140560      7.56046904550204
  H   -2.43318777068373      5.11816550813245      8.54216412325040
  C   -2.24403006159889      5.38943005190964      6.41179769112409
  H   -1.55981080517725      6.23536732751767      6.44788510159534
  C   -5.10707580088966      5.30999790160688      2.63281335919241
  H   -5.89469607549727      4.54096935628097      2.64334013406187
  H   -5.18051690407797      5.84753148510792      1.67765513737902
  C   -5.31464924472066      6.31141521637164      3.75230445487086
  C   -6.55626188724073      6.52450959826629      4.35591137259627
  H   -7.41300657086793      5.91629696828188      4.07278101986957
  C   -6.67481091278259      7.53273086184299      5.32151984566107
  H   -7.63208805060163      7.71863448862786      5.80404021223934
  C   -5.54790156454107      8.29101232719109      5.65906563177393
  H   -5.59955865913625      9.08064974763628      6.40426568632562
  C   -4.33465278598317      8.00726034262439      5.02657822208374
  H   -3.41035167020818      8.53460573535260      5.25710910678666
  C   -3.23501793556253      4.37021347504278      1.32506942348711
  H   -3.92209521325942      3.71989132180052      0.76016874946703
  H   -2.28634783051259      3.83734424677079      1.46515914006520
  C   -2.97416824908287      5.65291106260782      0.56477477697159
  C   -3.12453702374461      5.72178236108281     -0.82028730734490
  H   -3.44563415414932      4.84503579594719     -1.37852077904978
  C   -2.85919760300936      6.93646362533413     -1.46240263335023
  H   -2.95848347066861      7.02419741461058     -2.54230646890830
  C   -2.49511360193623      8.03993420010067     -0.69079761608884
  H   -2.31146943677142      9.00678817153790     -1.15302177940044
  C   -2.37600142379416      7.91676788620170      0.70418679626135
  C   -2.02680892017748      9.10128057090071      1.56224944917722
  H   -2.69184557942392      9.15897153610396      2.43271352616037
  H   -2.10964865107352     10.02845132533327      0.98480327611356
  H   -1.00645099870691      9.01974443506641      1.95819778823310
  C   0.17597190024547      4.44921329084442      3.69795572023706
  H   0.30773072767153      5.05917565580836      4.59873755758633
  H   -0.41693963492563      3.56038148031943      3.92763843749498
  H   1.14615492009469      4.15064521453958      3.28423950920102
  H   -0.08671840088842      6.03820319002217      2.56464290211896
