50
Coordinates from ORCA-job COBWEX-OH_1_2_tpss_d4_lanl2dz_631gpol_Fe2.opt
  Fe  3.37968297677755      9.45494673664975      5.85392888442418
  Cl  3.18000836125070      8.71682450169958      8.02495268623342
  O   4.69639197177161     10.60519272478216      6.27302390570966
  N   2.00007443696131     10.84444807384595      6.11758369778821
  N   3.34297080921428     10.17527019299093      3.99393190815469
  H   4.22773971955228      9.98784856232491      3.50797931213305
  N   2.11380770666743      7.99746511626881      5.14713062138010
  H   1.16476456527541      8.10607603023758      5.52245773159389
  N   4.67372038375139      8.03342215686094      5.49701825535752
  C   6.00836770637701      8.23495794624263      5.43041923696149
  H   6.31538801124734      9.27103439231867      5.54703643341339
  C   6.89756103787616      7.17279392928979      5.26672896073396
  H   7.96529249882093      7.36962888849781      5.21824146939201
  C   6.39306639849408      5.87005581945779      5.17721784232171
  H   7.06417344613770      5.02347752435557      5.05100499841763
  C   5.00999708422837      5.66818635497098      5.25899236687591
  H   4.58305621821833      4.66942889273802      5.20386056961932
  C   4.17384282904886      6.77116583282514      5.43074639967316
  C   2.67800019326797      6.69123293766935      5.60603183289183
  H   2.24476560811357      5.84835448228150      5.05041878300080
  H   2.44264805728440      6.59018116667368      6.67252325752636
  C   2.09861975404258      8.08424600074038      3.64738942686325
  H   3.01550738919209      7.57341932344901      3.31520935608118
  C   0.87718971423476      7.42062851399213      2.99360806225717
  H   0.81722285821493      6.36290059303427      3.28510968817150
  H   -0.03710453964002      7.91394289325814      3.36261689729654
  C   0.95627474633281      7.55448917864642      1.45888163575527
  H   0.06069666728871      7.11195904254734      1.00479784721830
  H   1.81906630629488      6.97834212671706      1.08957939064202
  C   1.09897399837807      9.02665631028712      1.03175076399632
  H   0.18343566220031      9.57866928264949      1.29621417066210
  H   1.20871881963201      9.09773204234865     -0.05778244480599
  C   2.30929506190896      9.69599313109309      1.71546463422808
  H   3.24059313428145      9.21102107591444      1.37942491845929
  H   2.37181250518434     10.75598407880199      1.43332731610580
  C   2.19944490442894      9.55457317787488      3.24104737671464
  H   1.29656861826162     10.07407297452376      3.59593683014067
  C   3.16850890445269     11.65167725923963      4.16413716466846
  H   2.92115669491261     12.14608066720090      3.21522202483006
  H   4.11980578211885     12.03633089701606      4.55035746107272
  C   2.08534372412107     11.84527322507454      5.19614363947700
  C   1.23977333012497     12.95348006461349      5.24040919555450
  H   1.33147928409183     13.73457376875282      4.48909429808876
  C   0.28575492049324     13.03938101139866      6.26189449539894
  H   -0.38104656411030     13.89689170388374      6.31920948635026
  C   0.20185124637890     12.00599903227883      7.20182020876180
  H   -0.52374112032163     12.03388724397094      8.01042144510783
  C   1.07591068213611     10.92225734291921      7.10209679723905
  H   1.08949625737978     10.10368585997941      7.81731314804762
  H   4.61629123764850     10.79406991481114      7.23586561201414
