50
Coordinates from ORCA-job COBWEX-OH_1_4_tpss_d4_lanl2dz_631gpol_Fe2.opt
  Fe  3.46719996861969      9.43614625949795      5.95490614133537
  Cl  2.83532303746023      8.34688651817157      8.02922089641216
  O   4.76985673848247     10.64427563978401      6.21037827629910
  N   2.06116959887608     10.88772951650210      6.15867428692697
  N   3.24653149487881     10.30260742499986      3.79285403106511
  H   4.07343327188630     10.20212043167725      3.19508610762190
  N   2.22788595235901      7.98718625779944      4.99010718019192
  H   1.29016203052913      8.09296360651506      5.39557373363251
  N   4.76771168127328      7.95713226806635      5.75204199510040
  C   6.09025447994548      8.09451014202770      6.00117439518997
  H   6.40367458817449      9.08872211641858      6.30507397378959
  C   6.97018531754560      7.01749761740277      5.91226088864490
  H   8.02424762111642      7.17113707525551      6.12703525383435
  C   6.47136433293523      5.75968240467041      5.55612039526785
  H   7.13466115434627      4.90179259255269      5.47327403507795
  C   5.09904244149830      5.61743858176533      5.32687402493473
  H   4.66855859701993      4.65106667776029      5.07485727381552
  C   4.26392113797299      6.72894657332812      5.45128346766519
  C   2.76396777302736      6.64902435192247      5.38449173350485
  H   2.42941527948352      5.86409641162767      4.69380898988459
  H   2.38781347268001      6.43059372290699      6.39140449147036
  C   2.15528184211178      8.13374012822089      3.49993427173888
  H   3.10184287994567      7.71970779423516      3.11727458285947
  C   0.96322770578391      7.37669123281935      2.88518779767184
  H   1.01937290025788      6.30719491387045      3.12952820720960
  H   0.03440846968973      7.76262503631769      3.33758221407524
  C   0.91185888071180      7.57252299452947      1.35708829428152
  H   0.03798170367853      7.04665270682664      0.95182014712287
  H   1.80179676848022      7.11171385691618      0.90030106331547
  C   0.85906548221060      9.06533376261145      0.99223840249603
  H   -0.08396314485119      9.50176912017057      1.35706826140014
  H   0.86915025873128      9.19406011879895     -0.09758944230801
  C   2.04726716690928      9.82132732895431      1.61582558015838
  H   2.98956524288152      9.44543512822544      1.18219113257942
  H   1.98938997115290     10.89367009695911      1.38193100636732
  C   2.09645169040252      9.62079315597210      3.14105689888363
  H   1.18732351229881     10.04746592552669      3.59363607525536
  C   2.99138763183835     11.73488347182899      4.05347408339251
  H   2.59455264717391     12.26620116749488      3.17483537026152
  H   3.94348004650657     12.20611824248084      4.33009880548785
  C   2.02644314817386     11.86304054707867      5.21100158621506
  C   1.16086191140680     12.95293641708096      5.32111607510909
  H   1.15274606438812     13.70828479013153      4.53820033424995
  C   0.32564885516069     13.06056825464097      6.43838514042752
  H   -0.34939410349137     13.90736129741550      6.54166586860315
  C   0.37685089886854     12.06007540151098      7.41286883572638
  H   -0.24835649116127     12.09748934220707      8.30089693896146
  C   1.25434988882643     10.98855032700691      7.24165748065119
  H   1.34958939635739     10.18493052105496      7.96806786048260
  H   5.29765880544599     10.77751072846064      5.39394555565896
