50
Coordinates from ORCA-job COBWEX-OH_1_6_tpss_d4_lanl2dz_631gpol_Fe2.opt
  Fe  3.51647753853282      9.51887151042000      6.06789832108974
  Cl  2.92290072462574      8.59144386476593      8.11114078184330
  O   4.87098166550850     10.71834435904546      6.33814486239447
  N   1.86672081032821     10.99288677557648      6.18361959454683
  N   3.21184629991230     10.30519476990752      3.98349845194133
  H   4.08798679400942     10.17251487789714      3.46623256999380
  N   2.24050270202487      7.93637516048796      5.07669416282827
  H   1.30335800548241      8.06163579309102      5.47495614874339
  N   4.85417936250498      7.85701223785563      5.59637868710233
  C   6.20020777407645      7.95446679367258      5.65478402404045
  H   6.58764677321328      8.95077000047764      5.84619064137618
  C   7.03381241454616      6.84608998078216      5.51117612472225
  H   8.11251269938991      6.96667097080265      5.56641353307408
  C   6.44880601855983      5.59076354745554      5.30231884692109
  H   7.06852918442538      4.70473828848516      5.18228197019110
  C   5.05440432925120      5.48788432039300      5.25772019692528
  H   4.56699461571369      4.52650141684444      5.11030295504610
  C   4.28321275790786      6.64220041580293      5.42091360280814
  C   2.77280048392253      6.61604717100787      5.49248367546168
  H   2.36565369488991      5.79431809946946      4.88647369088263
  H   2.47641118340154      6.46108481348347      6.53832022597285
  C   2.19236708879735      8.10198909588989      3.59543887416774
  H   3.15469042517790      7.71732513852739      3.22076855018996
  C   1.03471967471295      7.33926753955399      2.92460607263177
  H   1.10722960159492      6.26612155546762      3.14785525847619
  H   0.08458770313816      7.69593943310413      3.35611386943801
  C   1.02819225562119      7.56860287469662      1.40058166226154
  H   0.17651732233891      7.04042976099132      0.95311200384621
  H   1.93987144092080      7.13262678458825      0.96248741977265
  C   0.96448154095872      9.06859526471574      1.06819749719998
  H   0.00324985654138      9.48266712545665      1.41113591709227
  H   1.00879536088185      9.22356174397380     -0.01741290243969
  C   2.11812019003397      9.83103542050410      1.74763106398293
  H   3.08182447940841      9.47859528398365      1.34278030085139
  H   2.04819133516947     10.90542702480609      1.52792783839686
  C   2.10929449711006      9.59846606937285      3.26868240102973
  H   1.17404612857220      9.99276105052744      3.69521863486870
  C   2.95798395127153     11.75738941452154      4.15568119863580
  H   2.65538936559171     12.24230230472165      3.21667149551490
  H   3.89471425517384     12.21465530767460      4.49785230081466
  C   1.90056030537852     11.94590097763797      5.22167320821980
  C   1.03846909458359     13.04451615128975      5.24130197918230
  H   1.08578613725661     13.78757225524832      4.44792062740503
  C   0.12563998347401     13.17018629694679      6.29516705752086
  H   -0.55340366373997     14.01921779940643      6.33513938956204
  C   0.09953102331170     12.18804162279401      7.29147426322400
  H   -0.59158575200610     12.24776901499216      8.12814231347615
  C   0.98666196609770     11.11340226422122      7.20153719699382
  H   1.02800267169816     10.32591223372712      7.94987987073666
  H   5.60234592870331     11.06411802293430      5.79228156904215
