48
Coordinates from ORCA-job COBWEX_1_1_tpss_d4_lanl2dz_631gpol_Fe2.opt
  Fe  3.25806088106256      9.36158855092318      5.88281042004044
  Cl  3.28921711548477      8.79130265254366      8.07736287696043
  N   1.98009145798585     10.80199034754879      6.16006461613848
  N   3.30612389706111     10.15452061565263      4.03422092608758
  H   4.17941885178325      9.97214229911602      3.52449016756651
  N   2.07508447070256      7.93503133986468      5.10675914243658
  H   1.11207468139273      8.02708469840867      5.44947099305705
  N   4.61380309599790      8.02507628900600      5.57678331652664
  C   5.94982010137280      8.24108097353187      5.55768199272736
  H   6.26594965985788      9.27435021931958      5.68404037092739
  C   6.86923096280010      7.20211692185048      5.41574906426871
  H   7.93350078450756      7.42196139663326      5.41464821126836
  C   6.39490658764695      5.89162513243597      5.28375842451094
  H   7.08673733716416      5.06025144042027      5.17083942260311
  C   5.01291716978846      5.66534484995259      5.30672256161164
  H   4.60762525628246      4.65991098782703      5.21718383537365
  C   4.15043129041980      6.74862314347022      5.46682542123839
  C   2.65052992406855      6.64000709467409      5.58651555280512
  H   2.25357265285285      5.78278069019887      5.02480529429462
  H   2.37732618089935      6.54182686384966      6.64470224384157
  C   2.09738206264940      8.05855920671737      3.61178671456529
  H   3.03689089376936      7.58341842346523      3.28875615224375
  C   0.90891462627945      7.37718228364806      2.91621751651155
  H   0.88984809260129      6.30648498720404      3.16261323360157
  H   -0.02732882774431      7.81695049408288      3.29820453715075
  C   0.99048583533447      7.57939723417563      1.38943668380776
  H   0.11504701573969      7.12246498921288      0.91091480676899
  H   1.87729001313030      7.05463213496568      1.00062803374355
  C   1.07646166377455      9.07363018489006      1.03084319382085
  H   0.14319015478131      9.57768916300657      1.32718105189808
  H   1.17676412994429      9.20063008619072     -0.05448099050759
  C   2.26615780664151      9.75155083531090      1.74143679853143
  H   3.21122484538167      9.31017176981457      1.38319534357812
  H   2.29457387850233     10.82308564509744      1.49938000580575
  C   2.16514393807372      9.54734694049574      3.26019048158141
  H   1.25690903316561     10.03765430738145      3.64209084287371
  C   3.14008137383240     11.63008427747087      4.21411183687239
  H   2.88795270886744     12.13821052024980      3.27286811892772
  H   4.10260051454395     12.02658911719565      4.56646551714250
  C   2.06880237026097     11.82739614252488      5.26025768849313
  C   1.24973302892093     12.95225937998817      5.32956364175214
  H   1.35156873667916     13.74259100826167      4.58883154965185
  C   0.30973093456510     13.04629298613551      6.36407251577115
  H   -0.33761828167316     13.91661077080503      6.44306425440341
  C   0.22071231182027     11.99975068277324      7.28897601850005
  H   -0.49126623853219     12.03103837063878      8.10974686225173
  C   1.06516564276077     10.89703092595335      7.15931776079999
  H   1.06475937679791     10.07018062511576      7.86409497517415
