49
Coordinates from ORCA-job COBWEX-oxo_1_5_tpss_d4_lanl2dz_631gpol_Fe2.opt
  Fe  3.39126604701848      9.40041951992263      6.03584031668878
  Cl  2.78053605490390      8.50742047960576      8.09241620971169
  O   4.55502329452879     10.47005609708578      6.46529428596382
  N   1.84344481298915     10.93104554020224      6.14071606658494
  N   3.25796056994732     10.22018313124034      4.03285088229827
  H   4.14958661137372     10.02969835143221      3.56255204846820
  N   2.19847065289925      7.89630548154307      5.11964176395477
  H   1.25169648705700      7.97222791653091      5.50971027062300
  N   4.78391715911614      7.90823350650035      5.58523768354983
  C   6.11911864336153      8.10399932136225      5.61587955831119
  H   6.43189582840123      9.12856617114699      5.80405281559309
  C   7.01415366632098      7.04879780627589      5.44137717334348
  H   8.08448923485060      7.23495604204481      5.47250644135266
  C   6.50361762342492      5.76043910431232      5.23517414339593
  H   7.17656770467010      4.91732598892141      5.09356754233370
  C   5.11735179450157      5.56318093492271      5.21884591157781
  H   4.69282397087739      4.57242709421759      5.07249072162429
  C   4.27811725673579      6.66301386776301      5.40844427378696
  C   2.77414918559599      6.57398318996471      5.50757952922187
  H   2.37428324177705      5.76059809843159      4.88722425994218
  H   2.49579172664669      6.39726912914108      6.55483649196594
  C   2.15713745211544      8.06974343845840      3.62828426818667
  H   3.10566870272392      7.64948880103927      3.25767608182971
  C   0.97533753262833      7.34294379104766      2.96432561245884
  H   1.01318701853429      6.26854617477332      3.19104559851073
  H   0.03700622838351      7.73249522029765      3.39295238606559
  C   0.98208927892480      7.57026320553706      1.43909503520742
  H   0.10948971245094      7.07676338400410      0.99258600352033
  H   1.87521784728546      7.09442416172545      1.00446461054005
  C   0.98114794581005      9.07076864172732      1.10203071042971
  H   0.03715451537926      9.52459770071416      1.44243313380412
  H   1.03270809876952      9.21877444884100      0.01587480648743
  C   2.16419375916921      9.79182594600089      1.77844502176790
  H   3.11493091240041      9.40185763884636      1.37821118345951
  H   2.13465875261164     10.86700536595265      1.55492849992006
  C   2.13373300290715      9.56485722438202      3.29948009228610
  H   1.21202325873339      9.99825128697196      3.71581709186091
  C   3.08765865971343     11.68388878984268      4.20442429654950
  H   2.84978010144590     12.18569926307428      3.25616703211483
  H   4.03933514793231     12.07578359272087      4.58524605434265
  C   1.99831576444200     11.91873982255208      5.22889473312531
  C   1.22318107925474     13.07943198210146      5.26378400231631
  H   1.36587077238056     13.85206800081633      4.51096238401634
  C   0.27674669937736     13.22909054479441      6.28423524909944
  H   -0.33463862558782     14.12746119073511      6.33793250663945
  C   0.13070668280615     12.20988970784579      7.23186677278159
  H   -0.58959438029782     12.28798322116466      8.04214210566485
  C   0.93586866199345     11.07347042373283      7.12980018483571
  H   0.89052385071473     10.25624025773217      7.84515615188634
