54
Coordinates from ORCA-job COBWEX-CH3OH_1_3_tpss_d4_lanl2dz_631gpol_Fe2.opt
  Fe  3.14126259297649      9.29929314275500      5.94315339519185
  Cl  2.90245291536881      8.54330204587154      8.10714250959507
  O   4.78703673512239     10.91997685074275      6.70004959511942
  N   1.91065205265582     10.82194758834928      6.16583572483756
  N   3.13857834370221      9.99142000618430      4.01646064897758
  H   4.01879981828561      9.75566429115141      3.54259792486840
  N   1.86105654108994      7.71168337465060      5.05241325835571
  H   0.88867895826015      7.77260414467574      5.36807076906986
  N   4.44123638196791      7.87248590338455      5.58564529785455
  C   5.76983202624088      8.09768626794007      5.45170865185996
  H   6.08084232039868      9.13384856104078      5.54559787097003
  C   6.68320552017303      7.07007654078311      5.22046696613808
  H   7.74114928402958      7.30033699918935      5.12475656283025
  C   6.20885816395103      5.75711880468720      5.11876157853276
  H   6.89406591456016      4.93037403645060      4.94594106188333
  C   4.83266613661257      5.52731494562863      5.22708694784321
  H   4.42312664114911      4.52402873640438      5.13222157705261
  C   3.97100927408548      6.60149439825327      5.45730490825319
  C   2.47082845607787      6.46229607333107      5.56633497782561
  H   2.12595281587174      5.56020438129893      5.03773270813071
  H   2.19354175333088      6.38576205112905      6.62588410389943
  C   1.93513197764979      7.87106578201295      3.57697019932602
  H   2.88776779942892      7.41522847110079      3.26295179962264
  C   0.77569502461135      7.19239842544588      2.82565749724779
  H   0.77119778068146      6.11707014884987      3.05216888160713
  H   -0.17518007598131      7.60538688984588      3.20248104569337
  C   0.87209459342989      7.42828059779342      1.30717958660405
  H   0.01267130748225      6.96657968930675      0.80421499598141
  H   1.77495419629862      6.93274614028360      0.91656768232377
  C   0.93254758810265      8.93245473546481      0.99257603571582
  H   -0.01171763172910      9.41022485441744      1.29797704616894
  H   1.03857630118075      9.09690332627339     -0.08738564063792
  C   2.10458703819439      9.60609385108124      1.73326667501661
  H   3.05804355766583      9.18310365650901      1.37415143433988
  H   2.12439078189930     10.68186260903215      1.50970752924054
  C   2.00061956021005      9.37318635784154      3.24990343256413
  H   1.09048775554627      9.85390831833496      3.64038854383761
  C   3.02665438114169     11.47681787681541      4.13217520293876
  H   2.79053655082427     11.95722175351959      3.17292376687855
  H   4.00253231874416     11.84225755566947      4.47785899202843
  C   1.96692457374400     11.75775163749315      5.16713297981351
  C   1.12040410008022     12.86385532961464      5.14043615974169
  H   1.19383563618995     13.57993928693312      4.32480503087243
  C   0.18853230594025     13.03721597631110      6.17275624294044
  H   -0.47943037067156     13.89546742200961      6.17416645765413
  C   0.13308001224817     12.08321597712209      7.19531557198278
  H   -0.57336694888356     12.17543119750154      8.01628823506680
  C   1.00078151253533     10.99102599564990      7.16231151597742
  H   1.01488538193025     10.22319404217864      7.93183521908989
  C   5.69317528330789     10.61766917138313      7.80507175248119
  H   5.31691403930275      9.76077790490390      8.37504175713607
  H   6.66256755978388     10.38817092995317      7.35469007343337
  H   5.79988490893691     11.49769821213471      8.44943874873004
  H   4.01103855426369     11.36324673331069      7.10081850949306
