54
Coordinates from ORCA-job BUKBIT-CH3OH_1_4_tpss_d4_lanl2dz_631gpol_Mn2.opt
  Mn  7.98908421838789      8.12649464503803      2.93709767202958
  O   6.51183005859170      9.17784446617101      2.34326466394157
  N   5.84236106544630      8.68407450754422      1.28901099387938
  C   5.20317503278584      9.61497911046321      0.59988903102318
  O   6.92796656963711      8.65421762827236      4.98033218950142
  N   3.84415413772557      8.84380003477023     -1.47994579554138
  C   4.45122707831159      9.19085405901252     -0.53810622837802
  N   5.46145644896354     12.12404468200926      1.25396831013295
  C   5.29769150768888     11.00487707061960      0.94076372197246
  N   9.16826422049511      9.73261034504289      2.96187587922785
  C   8.78889316936137     10.98841532008031      2.61009772196529
  H   7.72984070037054     11.11430024212357      2.39963962517119
  N   9.61583373881317      7.32330052450587      3.75595323298284
  C   9.70146836208262     12.03204231205818      2.50601405570015
  H   9.35324472580636     13.02146627828666      2.22213823238238
  N   8.55819641180158      7.43887066332993      0.91489725929903
  C   11.06250591091147     11.77469539913582      2.75497349723551
  H   11.80107148763424     12.56776110321157      2.66413234209582
  N   6.96295251035348      6.40147594129902      2.75374714960587
  C   11.45694442912799     10.49000476419437      3.12422839303047
  H   12.50234702949449     10.27377246578434      3.32698184437307
  C   10.49132923862570      9.47591342761419      3.24292968628201
  C   10.74396379032664      8.11623909513252      3.69993889845557
  C   11.99367527754468      7.62563549417470      4.11282241561167
  H   12.87434007676031      8.25846031580474      4.04280918642935
  C   12.09460220689134      6.33606510424938      4.62836548365535
  H   13.05594088365775      5.94804193539672      4.95585159069300
  C   10.93140611593376      5.54963322040650      4.72411534544007
  H   10.96273947876459      4.54209943942034      5.13035280122404
  C   9.72614931992160      6.07041566687502      4.27153471851383
  H   8.80938303480154      5.48920030383449      4.29819883739399
  C   9.34646559403761      8.07341628917315      0.02746958900282
  H   9.84145190133050      8.97158395740764      0.39147445312217
  C   9.52112563089404      7.62367409753643     -1.28247544530028
  H   10.16152774168792      8.17136669358823     -1.96912540426619
  C   8.84998636624584      6.46017284537991     -1.68098032326142
  H   8.95672665001384      6.07751695230771     -2.69337526284886
  C   8.03239015959517      5.79597306850040     -0.76407632810453
  H   7.50038998592866      4.89836548363771     -1.06580010200457
  C   7.89771824632232      6.31355255310674      0.53398952597229
  C   7.02552990311898      5.72435869396655      1.56605037792646
  C   6.27008788927357      4.55880343124697      1.37114069743001
  H   6.33330275626635      4.01964559912907      0.43086975454206
  C   5.42608651095471      4.09806138926052      2.38261490589480
  H   4.83184866563683      3.19983808987430      2.23232257222059
  C   5.35258208031588      4.81426203786133      3.58535086889164
  H   4.70097098612869      4.49902845664408      4.39593863356572
  C   6.13783271049724      5.95486105658247      3.73264232074501
  H   6.12704676199372      6.55635566776314      4.63858697493787
  C   7.64239419745890      9.34366088471371      6.03627501747131
  H   8.08474905459486     10.27812727062683      5.66832270909547
  H   6.97042833110323      9.54768550176185      6.87823278469411
  H   8.43568673950752      8.66260181785769      6.35386951898638
  H   6.23085290007420      9.24485259621146      4.62265940595749
