50
Coordinates from ORCA-job BUKBIT-OH_1_5_tpss_d4_lanl2dz_631gpol_Mn2.opt
  Mn  7.87056185849216      8.25998774160652      3.13954945540171
  O   6.43367592535813      9.34864493321468      2.43146521330400
  N   5.47699347621347      8.63352916858750      1.81766040522934
  C   5.34121246486058      8.94127449159468      0.53541420762195
  O   7.45595281294725      8.57620960612030      4.85814181345359
  N   3.72387839630573      7.45110191375594     -0.85177573506359
  C   4.42378179911088      8.15464656728022     -0.22556988890145
  N   6.93806264541330     10.68142718231042     -0.56351956186621
  C   6.18158970367514      9.91076311746583     -0.10378719262395
  N   9.25697880098833      9.99482375211340      2.94577542088004
  C   8.88052163863282     11.22110761672817      2.53551557571539
  H   7.93172532389230     11.26777426788127      2.00695804301374
  N   9.75664318298383      7.52865264516967      3.79733180560839
  C   9.66422650569305     12.35529795796186      2.76969546229950
  H   9.33072454504069     13.32812068673734      2.41825511973134
  N   8.26979870963819      7.55284177042700      1.19893824689336
  C   10.87015673390842     12.20273230313331      3.46269458552517
  H   11.50059750610349     13.06358997957071      3.67405144986751
  N   6.81779809626617      6.33088199682487      3.03215656631997
  C   11.26130349871213     10.92838765127557      3.88833373911506
  H   12.18912764695524     10.79922776109452      4.43830530613649
  C   10.43048993334232      9.83428430132131      3.60954611793268
  C   10.74680604596045      8.43829910377901      3.99630479999362
  C   11.98499723751704      8.03903030173674      4.52094033309385
  H   12.78275202764379      8.76220233708016      4.66255284018240
  C   12.19054373332956      6.69699231039749      4.85249998382063
  H   13.14570620554845      6.37774763050061      5.26339652577754
  C   11.15924414608081      5.77385836455693      4.64630324454717
  H   11.27907867086460      4.72234279529407      4.89284278318539
  C   9.95478519796668      6.23584917970713      4.11242467467717
  H   9.11140095062215      5.57440143529610      3.92965843331299
  C   9.12431415974216      8.16022717392277      0.35086215046845
  H   9.67425815098902      9.00069816015290      0.76103662404377
  C   9.27393849073445      7.75756585875142     -0.97643926249312
  H   9.96438408719509      8.28684877107890     -1.62694364622609
  C   8.50699072098591      6.68326568281955     -1.44002724172531
  H   8.59207718624540      6.34447183505755     -2.46996989014647
  C   7.62520643197677      6.04592082448328     -0.56326956347716
  H   7.02938095817603      5.20298206138399     -0.90035150967010
  C   7.52026876242579      6.49971431028918      0.75830803573589
  C   6.60087153599576      5.91472821753212      1.75561135832569
  C   5.54869375441821      5.04722569561045      1.43714790837876
  H   5.35368148070255      4.75985117939571      0.40808190379554
  C   4.71554759559200      4.59437057104413      2.46569429916594
  H   3.88534293643171      3.92952475379112      2.23871953435124
  C   4.94810408324668      5.02168733817588      3.77814494945410
  H   4.31503179148974      4.69527490576341      4.59907140963539
  C   6.00527948139833      5.90445067698623      4.01700725261175
  H   6.22079321459337      6.30972643554065      5.00320352845927
  H   6.70136975759294      9.20473467769645      4.88622238512735
