50
Coordinates from ORCA-job BUKBIT-OH_1_3_tpss_d4_lanl2dz_631gpol_Mn2.opt
  Mn  7.90985123228102      8.22174221679607      3.01139187620979
  O   6.56210281139382      9.29194435540588      2.21538021690653
  N   5.73586647168556      8.67149775703126      1.36511202096777
  C   5.11503051477580      9.50774795457125      0.54844523071468
  O   7.35937529262055      8.61560342126071      4.68070173046589
  N   3.48293191378167      8.47973139976391     -1.19636730430211
  C   4.21009073206607      8.94652027923598     -0.40284044696029
  N   5.71098786057748     12.04301224029178      0.61146031158353
  C   5.38872229575743     10.91533273900866      0.56591806934764
  N   9.11829961693694      9.83566976212676      2.94583506423475
  C   8.75136027020992     11.05238483301926      2.49229242332854
  H   7.74964778966130     11.11582939588670      2.07617945073324
  N   9.59063620222079      7.41618367635620      3.79106348144905
  C   9.60878736703327     12.15325429545204      2.55977693976993
  H   9.27338300588624     13.11550161626180      2.18249522559587
  N   8.42338868281920      7.52810709006667      1.16082000031666
  C   10.88091717559345     11.98485453668144      3.11707678036962
  H   11.57235681701871     12.82153984664707      3.18669647605292
  N   6.83859702343325      6.57298829348581      2.95244836029923
  C   11.25776014782449     10.72419242300749      3.59194511857088
  H   12.23921286297534     10.57760126319857      4.03344297848296
  C   10.35331466133020      9.65922622385472      3.49885047571370
  C   10.61960103457471      8.29135477424438      3.97580724554907
  C   11.81330169354658      7.88300935244556      4.58507069279269
  H   12.62810924035425      8.58675861573417      4.72843852318195
  C   11.94209123864374      6.56123254844250      5.02000222941085
  H   12.86040843440010      6.23164766199973      5.50034174482325
  C   10.87606447396716      5.67425208269582      4.83306545303757
  H   10.93409955317712      4.63996634533890      5.16119899685053
  C   9.71745212944596      6.14262306326824      4.21116463098964
  H   8.85835799747174      5.50100296291913      4.04259148743641
  C   9.26863950934582      8.12982911124995      0.29623851192637
  H   9.78541140127233      9.00786191120291      0.67090310547879
  C   9.46096555622388      7.66768383300023     -1.00417895136136
  H   10.14708881247589      8.18794251917806     -1.66699300814956
  C   8.74871341061323      6.53773608430649     -1.42931223736544
  H   8.86728618281021      6.15546670292579     -2.44037380960928
  C   7.87798270981516      5.90885764636679     -0.53897116484891
  H   7.31182267807992      5.03606855712115     -0.85086827708823
  C   7.72852572661062      6.42253546512727      0.75701191177586
  C   6.84083704212520      5.86735847931603      1.78011031012412
  C   6.04236093848373      4.72827288291917      1.61895132978873
  H   6.05415912472935      4.18119623676628      0.68071546377164
  C   5.22434075197426      4.30955003333761      2.66998977072345
  H   4.59159210029433      3.43268868869266      2.55623245787460
  C   5.23160513294259      5.03916963329835      3.86679053015565
  H   4.60842647541491      4.74993565614075      4.70888471139117
  C   6.04953275823030      6.16277489953876      3.97273618063344
  H   6.10692207328799      6.78207754545474      4.86388958529425
  H   6.63833107180599      9.27998108755812      4.61660809556181
