48
Coordinates from ORCA-job BUKBIT_1_2_tpss_d4_lanl2dz_631gpol_Mn2.opt
  Mn  8.00108436145228      8.20281674792680      2.74523697402421
  O   6.60679766344618      9.22724748381108      2.07415286629429
  N   5.68622919363911      8.66456033223849      1.27137131568641
  C   4.86450419416617      9.55609665164846      0.74271228127737
  N   2.99358900586983      8.67999412730858     -0.83812444255478
  C   3.83562763236008      9.07270051524693     -0.12194937142989
  N   5.21315584561764     12.09611855229780      1.21091265367453
  C   5.01109356447906     10.96124856469299      0.99095396312240
  N   9.10609150658818      9.84071859630751      2.87488827070092
  C   8.71508393843955     11.07432070636143      2.46058371849119
  H   7.72778006085915     11.12397363022530      2.01068551172589
  N   9.58100009726824      7.46151045295182      3.70377034909689
  C   9.52353779527359     12.19903751719844      2.61017233121712
  H   9.16224836488061     13.16295611107383      2.26184949458587
  N   8.55606378868829      7.39277123173152      1.10415216482640
  C   10.78407241934151     12.06184041778618      3.20886226722814
  H   11.43701330569731     12.92200615476381      3.33614523859330
  N   6.87085778129452      6.61072195484961      2.81267699531343
  C   11.18759428421543     10.80042491745531      3.65174891363212
  H   12.15280951427556     10.67053766651460      4.13343238492930
  C   10.33170003967112      9.70428927553506      3.48140311422742
  C   10.60973335649997      8.34077394785555      3.93423109176362
  C   11.79424720107296      7.92640993066042      4.55999170067171
  H   12.59848428966601      8.63702978137963      4.72901723202002
  C   11.93078990896327      6.59894374698250      4.96677780607551
  H   12.84331017448334      6.26546274684265      5.45502851545866
  C   10.87469763180309      5.70552583589198      4.73309472193223
  H   10.93965211693766      4.66242233981215      5.03127355487736
  C   9.72743529115074      6.17126207518825      4.09735846448120
  H   8.88878261503118      5.51590327199455      3.88297982266058
  C   9.50245972133531      7.91026972679602      0.28207601186147
  H   10.02868113486806      8.78091791189673      0.66017745587137
  C   9.76934945490786      7.36903378944362     -0.97230618697923
  H   10.53192180049260      7.82264363650548     -1.59978358961710
  C   9.04128591775314      6.24903754738464     -1.40298599398345
  H   9.22381367918129      5.81134269004775     -2.38121745468555
  C   8.07604417813340      5.70434044218487     -0.55606668142099
  H   7.49680036685683      4.83833081234593     -0.86466350496161
  C   7.84704867345203      6.28807888851750      0.69650078059152
  C   6.88047797748061      5.83087251494243      1.68650037281597
  C   6.02163713723356      4.73161644034735      1.55601309742996
  H   6.03513274745193      4.13034463171001      0.65106768148993
  C   5.14262787888241      4.42662469795312      2.59547168242430
  H   4.46321581534274      3.58235082149665      2.50765788308531
  C   5.13922090895454      5.22864767141189      3.74819980940259
  H   4.46236268319185      5.02812760704538      4.57420210508001
  C   6.01017062100789      6.31265061565469      3.81496592776371
  H   6.02738236034190      6.98164426978229      4.67320069922825
