56
Coordinates from ORCA-job BPYCXC-OH_1_5_tpss_d4_lanl2dz_631gpol_Co2.opt
  Co  -0.03284275378385     -0.07706780397814     -0.18585283389330
  Br  -0.07556393583526     -0.23704283358126      2.30924144702365
  O   -0.06014426109122     -0.05709736706817     -2.03125781523378
  N   0.81924862463128      1.89878899837546     -0.19083362278883
  C   1.72553958024166      2.31728101022096      0.71915160719749
  C   2.30516452595732      3.58556633527982      0.65674042620298
  C   1.93133216638902      4.45146250853293     -0.38159917591694
  C   0.99046492006722      4.01085236436343     -1.32697245599808
  C   0.46113574333180      2.73017916037200     -1.19990458071574
  C   2.51654025294977      5.82571199284097     -0.49779575708154
  O   2.20268158911489      6.59779027752260     -1.38984180396732
  H   1.96535596113317      1.60869848389516      1.50809137544250
  H   3.03259067830603      3.88940757138491      1.40775334575595
  H   0.69491624873988      4.66992184393603     -2.13989689376193
  H   -0.25152770890099      2.32233431609596     -1.91145471706134
  H   3.25796126329448      6.09987238476121      0.28303913407063
  N   -2.02206187666489      0.86363423399096     -0.13864335033657
  N   -0.90280350413634     -2.08839688565982     -0.24361157506877
  N   1.99343411555738     -0.89974729793733     -0.20187903633804
  C   -2.35278192111033      1.80447528843858      0.77205423104295
  C   -2.90162515600273      0.57721172909829     -1.12898537026290
  C   -2.03931881214987     -2.37023299282930      0.42953607554252
  C   -0.31654964783494     -3.06687207645063     -0.97480993100584
  C   2.45034536559074     -1.83048023589525      0.66366705492309
  C   2.82053895761628     -0.44644371782115     -1.17654656673178
  C   -3.56925335338305      2.48883945408375      0.72903655638828
  H   -1.61716973417273      1.98791771078141      1.55068635448088
  C   -4.13931376224124      1.20368822861389     -1.23523674201119
  H   -2.57429241371752     -0.16943423981241     -1.84645339083169
  C   -2.63375036011225     -3.63289355865383      0.38938483388353
  H   -2.45391498639373     -1.55630534726590      1.01794301584316
  C   -0.84032730238724     -4.35329187972721     -1.06098754289320
  H   0.60214984675105     -2.78890624075976     -1.48721302362087
  C   3.74779081280244     -2.34166227368892      0.58874650761849
  H   1.74954800775043     -2.14917771575182      1.43121254654437
  C   4.13041752568764     -0.89682365019130     -1.30969446705014
  H   2.38605247024002      0.28287943548638     -1.85496666329922
  C   -4.48379312834800      2.18307246470172     -0.28874167299489
  H   -3.79634543213562      3.24302660860562      1.48072945663987
  H   -4.83630481398252      0.95740289167946     -2.03289373237959
  C   -2.02621721263487     -4.64539131969668     -0.36705559631004
  H   -3.55083865990156     -3.82034059409541      0.94544196163353
  H   -0.35528911014127     -5.12921938000732     -1.64868676403212
  C   4.60796173866225     -1.86547194377587     -0.41096570098033
  H   4.07766041612862     -3.09368596819103      1.30378809766723
  H   4.78397926032977     -0.52008741670365     -2.09307340395605
  C   -5.80801817664532      2.87682858289041     -0.38337817953671
  C   -2.61215711398714     -6.02252527375853     -0.44460912316580
  C   6.01292340816495     -2.36987800053235     -0.53595021929583
  O   -6.62086160980628      2.61910877565656     -1.25709967059966
  H   -6.00627490033086      3.64311602390301      0.39631102584784
  O   -2.09523917491683     -6.91574687615807     -1.09649133569693
  H   -3.54923538528867     -6.17993474948570      0.13061649764637
  O   6.77920944033499     -1.96657593551691     -1.39649784520628
  H   6.31614393219268     -3.13696187046446      0.20845356103994
  H   -0.28731064392858     -0.86148323005330     -2.54076455241199
