56
Coordinates from ORCA-job BPYCXC-OH_1_1_tpss_d4_lanl2dz_631gpol_Co2.opt
  Co  -0.01949189953603     -0.05314849796028     -0.15221533986381
  Br  -0.04433938024390     -0.12369063332196      2.35051413785308
  O   -0.02429050107840      0.07552509347674     -2.02415071944557
  N   0.76583282284491      1.73712465597920     -0.17223741507893
  C   1.71801851196551      2.11970456653146      0.71240905904285
  C   2.29772460809382      3.38681710259006      0.65787481810983
  C   1.88311135339006      4.28903395198053     -0.33176767526058
  C   0.90282372191566      3.87817682074869     -1.24893212767674
  C   0.37192193867167      2.59741421626798     -1.14735568108600
  C   2.46687982345260      5.66503439657086     -0.43001713306489
  O   2.11245450289542      6.46533988687446     -1.28100255724126
  H   1.98445547750953      1.39120579494700      1.47079487260427
  H   3.06079259478243      3.65773565087317      1.38538776843213
  H   0.57464815613239      4.55943722860093     -2.03028846230364
  H   -0.35242821338228      2.20310187317303     -1.85178956151814
  H   3.24533110677963      5.91261979091262      0.32283930299109
  N   -1.80303330564244      0.77250649947930     -0.17582437671558
  N   -0.80067111565644     -1.84601750570304     -0.19911359224404
  N   1.78639232800056     -0.80907212485795     -0.22113303719861
  C   -2.16082915758537      1.73936292957508      0.70374916717364
  C   -2.67214511868380      0.41356279903588     -1.15643490441894
  C   -1.88712245844078     -2.14671481059527      0.55602007618953
  C   -0.28823840544621     -2.80543271153735     -1.01636339354568
  C   2.23031962927147     -1.74302507231905      0.65557367198282
  C   2.61166297535561     -0.37621404407255     -1.21251593149288
  C   -3.40408184323860      2.36845576203244      0.63653619335488
  H   -1.43098130386765      1.97949831388657      1.46921788513838
  C   -3.93249787808787      0.98809413904611     -1.26980650906221
  H   -2.30426152875610     -0.32199453438919     -1.86043738940340
  C   -2.49338439351618     -3.40166884004598      0.50915281226232
  H   -2.23929776714924     -1.36149313346781      1.21530018056174
  C   -0.84070622611469     -4.07689530762808     -1.11079720952459
  H   0.59355311595107     -2.53079222184742     -1.58800450375738
  C   3.52015745565087     -2.26748514001443      0.57369715972644
  H   1.53173684339742     -2.04051134130980      1.43071039977626
  C   3.91177481688042     -0.85194449027480     -1.34080195717064
  H   2.16168366500201      0.32682384122741     -1.90594575532185
  C   -4.31324344706941      1.98701311506731     -0.35953980524100
  H   -3.65108629761586      3.14329778424576      1.36004704538531
  H   -4.61960116685204      0.68327656902010     -2.05552408578006
  C   -1.96932616557968     -4.38876266581328     -0.33625782185091
  H   -3.36217266245498     -3.59783678098294      1.13487845826072
  H   -0.41335841735382     -4.82803343961994     -1.77079093243699
  C   4.38331149337011     -1.81491340258828     -0.43391327588306
  H   3.83871613165195     -3.01717634425462      1.29591608351188
  H   4.56261049863328     -0.49357532551157     -2.13487559494916
  C   -5.66534243647201      2.62203371873246     -0.47241460417201
  C   -2.57854562524026     -5.75498204604325     -0.42695119988469
  C   5.78075001556465     -2.33966159268759     -0.56187705962267
  O   -6.47032731282046      2.29343130370151     -1.32938568180231
  H   -5.89053473562964      3.41235104810873      0.27486836764618
  O   -2.12778022004281     -6.61879474950891     -1.16206730103737
  H   -3.46611536001420     -5.93161529924549      0.21635979575948
  O   6.54414521439162     -1.95578650884174     -1.43365704683680
  H   6.07953253059648     -3.10234721257566      0.18841127999484
  H   -0.14514698857999     -0.81850307566717     -2.40508889386530
