54
Coordinates from ORCA-job BPYCXC_1_2_tpss_d4_lanl2dz_631gpol_Co2.opt
  Co  0.00015776314515     -0.00027330459246      0.06823029620610
  Br  -0.00097202268334     -0.00051615523860      2.66736245326057
  N   0.73708550565427      1.79122851446620     -0.08364397363096
  C   1.70092290699016      2.21957405567062      0.77122713672929
  C   2.30299584534037      3.46991020783482      0.62957546398636
  C   1.91222132772013      4.30814782500498     -0.42395786389560
  C   0.91555250214853      3.85943938405776     -1.30740181577725
  C   0.35296524585072      2.60592907165003     -1.10529659894495
  C   2.52855207726075      5.65780788002874     -0.62577696269906
  O   2.20171163496933      6.39192326003910     -1.54514732675478
  H   1.94318738814958      1.53727270902471      1.58098649300004
  H   3.06689500309463      3.77915736136006      1.34090905534700
  H   0.59817255198196      4.49543059830561     -2.13039055268055
  H   -0.42553681096334      2.22021223689762     -1.75848492534192
  H   3.30338854853845      5.94943082282352      0.11437421230214
  N   -1.79118628873614      0.73682958030762     -0.08458194114220
  N   -0.73694810800902     -1.79164000492417     -0.08418472649801
  N   1.79169671884389     -0.73719957571192     -0.08318675969733
  C   -2.22137573349576      1.69743257962809      0.77299058686392
  C   -2.60375238460985      0.35642051147974     -1.10932502695449
  C   -1.69478925234228     -2.22291625404362      0.77593401582486
  C   -0.35944601412705     -2.60316673000241     -1.11082918851312
  C   2.22141342830349     -1.69757205745268      0.77488354355704
  C   2.60502354889045     -0.35675452210361     -1.10731076139079
  C   -3.47149870341714      2.29987424138813      0.63106293351945
  H   -1.54075128531812      1.93671987293158      1.58504097227844
  C   -3.85691456489339      0.91962769284031     -1.31187470062763
  H   -2.21660044617958     -0.41956320983706     -1.76464409610072
  C   -2.29732053527608     -3.47306686947933      0.63469317434929
  H   -1.93175027654289     -1.54314513215423      1.58937976375502
  C   -0.92292447964855     -3.85630011655345     -1.31281348552849
  H   0.41439390972331     -2.21518821994888     -1.76818319776573
  C   3.47176503145031     -2.29979028904260      0.63403342992421
  H   1.54021240478248     -1.93688500055304      1.58644544731867
  C   3.85846386744568     -0.91973218975687     -1.30877820808378
  H   2.21825227780291      0.41906839801486     -1.76304391969185
  C   -4.30754239892406      1.91293308272368     -0.42562181969357
  H   -3.78229632231735      3.06105600896321      1.34463020299241
  H   -4.49118665378501      0.60526297802641     -2.13734347135534
  C   -1.91339337288722     -4.30802305571637     -0.42394855434682
  H   -3.05621851335285     -3.78474259274491      1.35030675996238
  H   -0.61092163633012     -4.48971809867576     -2.13983287774938
  C   4.30857690420423     -1.91283499312891     -0.42203700050944
  H   3.78213944200734     -3.06081048626217      1.34795678765294
  H   4.49333565828208     -0.60534402885054     -2.13377736567459
  C   -5.65687491569321      2.52984274990827     -0.62786493869890
  C   -2.53054952144530     -5.65733738816247     -0.62554787919451
  C   5.65819318117518     -2.52950410772946     -0.62311385154049
  O   -6.38878417179645      2.20686641994008     -1.55035499083499
  H   -5.94984976325604      3.30230439781253      0.11423230769290
  O   -2.20964547080889     -6.38862934861514     -1.54925047464737
  H   -3.30018273717833     -5.95148011871736      0.11902169693281
  O   6.39101848072629     -2.20610110608453     -1.54472693894152
  H   5.95091922953570     -3.30146748504571      0.11959946145031
