64
Coordinates from ORCA-job BREACO-CH3OH_2_3_tpss_d4_lanl2dz_631gpol_Co3.opt
  Co  2.53903478963792      0.04988998456496      0.89759315803852
  Br  1.64921575917082      1.30129102282307     -0.95456684062506
  O   3.66381743427122     -1.05915259469155     -0.73245115512732
  N   0.96531349208725     -1.10971327241572      1.22913927812998
  N   1.59302089893894      1.37491963428727      2.27245725669284
  N   4.16782607647284      1.18753934896217      1.17434770178703
  N   3.36762772170058     -1.03069513295730      2.35936284516755
  C   -0.01401828975653     -0.48319336290608      2.21731701430849
  C   0.73127599501191      0.52076463761399      3.12383994047940
  C   2.67366810549019      2.18257288248167      2.92623563922241
  C   3.72154282482998      2.46754360105146      1.83315083209338
  C   5.26045104261053      0.42422332876163      1.92080864267681
  C   4.83226905385144     -1.04718390242131      2.03873875757582
  C   2.59059889893143     -2.31896594840151      2.67166374067369
  C   1.52082201539759     -2.46026993680140      1.58450956350037
  C   -1.17680439452881      0.17407777449151      1.44700511703565
  C   -1.98572642049307     -0.80513252252138      0.57953250510238
  C   2.14475981202280      3.46582831250646      3.59546067843668
  C   3.22203912792144      4.24276059859185      4.37270975991889
  C   6.62513607065775      0.58562753093901      1.23080371321014
  C   7.12745041077234      2.03752049672857      1.16832610352920
  C   3.48038611255159     -3.56196058112135      2.82638694059169
  C   2.66484446275773     -4.81131720190675      3.21374462288607
  H   0.46110901833772     -1.20357981482480      0.33753058998981
  H   4.50819016033210      1.40300311457130      0.22894586139831
  H   3.27267484566956     -0.42856553126071      3.18635552560569
  H   -0.41133190122278     -1.29879074339199      2.83920265856246
  H   -1.83883996192513      0.62140986496804      2.20094398736722
  H   -0.79633151945353      0.99645846335809      0.82263294519590
  H   -2.35026257035968     -1.65699566961467      1.16855492894687
  H   -1.41210967925595     -1.19400239751317     -0.27690104705534
  H   -2.85507315262044     -0.29119737522473      0.15529115767056
  H   0.00144520571115      1.10386905709595      3.70153415145522
  H   1.37590542578107      0.00722517586395      3.84954556699257
  H   3.11646143314357      1.53747486110690      3.70446326699210
  H   1.69678320764829      4.10748877857089      2.82097663269761
  H   1.33550081377950      3.18007333724131      4.28214638177632
  H   3.99442836166994      4.65384000359184      3.71008973886544
  H   4.59228507272688      2.98727828011533      2.24846607316843
  H   3.28043172151623      3.09198360259588      1.04732802213189
  H   5.29598592857239      0.86843298935366      2.92669173855734
  H   7.34871600388597     -0.03044939261454      1.78300499154846
  H   6.55399507925991      0.15645149098620      0.21896507369483
  H   7.21320456327039      2.47471286252008      2.17210814001638
  H   8.12014654917126      2.06783581760269      0.70637398252388
  H   6.47183939852624      2.68048311928093      0.56324386247128
  H   4.97879720017402     -1.57196613125624      1.09338551600866
  H   5.40052226837955     -1.55436406140720      2.82768428693343
  H   2.09661806896220     -2.12506952354703      3.63334576597362
  H   4.02573470464874     -3.74910348179180      1.89002026920812
  H   1.97877374689289     -5.11836323092856      2.41417067593226
  H   3.34544539213768     -5.64808679848298      3.40427031931226
  H   2.08193233509035     -4.63931139169939      4.12823799957370
  H   1.95806621953127     -2.87044023505393      0.66737720738865
  H   0.70895609352348     -3.12472095351618      1.90699596981010
  H   1.00922240201340      2.00391597649943      1.70731849938087
  H   3.70810301507078      3.60660616540975      5.12509372132849
  H   2.76206503287509      5.08649194058233      4.89870253428856
  H   4.22723092614770     -3.36635048502139      3.60758889830442
  C   3.81193686431468     -2.41467415352718     -1.26157042437431
  H   2.85386091503064     -2.78949530772904     -1.64052909251941
  H   4.55994763537793     -2.41090604959111     -2.06064919483196
  H   4.16612441423523     -3.03843970089500     -0.43721506628863
  H   3.40161776112158     -0.47770717008218     -1.48263793130685
