60
Coordinates from ORCA-job BREACO-OH_2_4_tpss_d4_lanl2dz_631gpol_Co3.opt
  Co  2.53917785805205      0.00908453719653      0.63327401290230
  Br  1.64643951808755      1.37504548487255     -1.12917567856753
  O   3.26847958253706     -1.12927605614178     -0.50706956148932
  N   0.92454597279164     -1.25720975531681      1.12751994669210
  N   1.72548746893373      1.21898574049920      2.01719362437232
  N   4.32589008209132      1.14962407480724      1.01905991300443
  N   3.44903233487000     -1.11030716695764      2.18209282295191
  C   0.01339479001793     -0.57568133739526      2.11676408156288
  C   0.85032701463619      0.41801242684679      2.93935146911336
  C   2.76876163180636      2.07669749955358      2.71228411828545
  C   3.85216571900696      2.40331731784634      1.67599773708421
  C   5.35343239935238      0.33580685616114      1.77007030733659
  C   4.89190511967215     -1.13203578097874      1.80982671483878
  C   2.69871274329354     -2.39896530293499      2.49438624931464
  C   1.54721585744518     -2.56470147366151      1.48385533247384
  C   -1.14979702226681      0.10241810979143      1.36610679591088
  C   -2.07031219320886     -0.88358974996672      0.62706931622629
  C   2.13634255377980      3.33069080221477      3.34694990439090
  C   3.14403422314792      4.16252609940192      4.16317925303680
  C   6.75568267113318      0.48870185436875      1.15115785661449
  C   7.30703789386975      1.92277667656392      1.19920928899374
  C   3.59296205457705     -3.65092702883600      2.54449753817691
  C   2.79978498664311     -4.91523959528096      2.92806968341778
  H   0.40754563692804     -1.38074002214226      0.24862591404825
  H   4.68010210010182      1.35798468566991      0.07800003229014
  H   3.38314696662344     -0.52081199507299      3.01804351938703
  H   -0.39176416563271     -1.33790206074383      2.79934552426896
  H   -1.73639489303698      0.65680813145417      2.11128235116545
  H   -0.75132485392186      0.84541759799970      0.65608083824051
  H   -2.48287803091333     -1.63363421851951      1.31392358009314
  H   -1.56314373401733     -1.41289296120452     -0.19476939821577
  H   -2.90782449136485     -0.34054860118060      0.17595274637254
  H   0.19710344964056      1.08647054459824      3.51329771971045
  H   1.50457134944677     -0.09590371755790      3.65272512084245
  H   3.19388108257955      1.44433489968406      3.50690341806449
  H   1.69405331032011      3.94695070567067      2.54911508647147
  H   1.31641075622747      3.01442544569705      4.00641772700392
  H   3.92268419748558      4.60361106745710      3.52868729486631
  H   4.69217405002711      2.92171226884092      2.15437250148480
  H   3.44254557321426      3.05171300629635      0.89192830409404
  H   5.35880531549067      0.73152348843802      2.79770107670822
  H   7.42826015192663     -0.18456497348319      1.70123739444382
  H   6.72446959691964      0.11799306079620      0.11456016236067
  H   7.35084047491946      2.29993099768331      2.23000030554099
  H   8.32511647198590      1.94310177996179      0.79537129690091
  H   6.70845045752786      2.62140299067269      0.59687556964109
  H   4.99423684013611     -1.61432186847325      0.83365388114107
  H   5.48268647494927     -1.68456589052762      2.55056338571885
  H   2.26620796591160     -2.24195146333035      3.49233239330112
  H   4.07775575738009     -3.79442917988783      1.56851969280214
  H   2.07822769821447     -5.20141915803582      2.15238048491169
  H   3.49210677058264     -5.75447547906589      3.05617300829959
  H   2.26115813453849     -4.77810086146254      3.87540699179422
  H   1.92804353090995     -2.98699243661074      0.54766426912518
  H   0.78416988153875     -3.23773181986954      1.89591181109816
  H   1.12620534208176      1.84990018841253      1.46408992703701
  H   3.62506391299057      3.55566564930354      4.94179451999797
  H   2.61857009193364      4.98604285154372      4.65884983671490
  H   4.38418068306678     -3.48868621673618      3.28880889815079
  H   3.03218288301874     -0.91541066892917     -1.44357791252041
