58
Coordinates from ORCA-job BREACO_2_1_tpss_d4_lanl2dz_631gpol_Co3.opt
  Co  2.61259584238899      0.03991048634170      0.97566435476188
  Br  1.96837153667959      0.94202331471827     -1.09459072362729
  N   1.08991247915587     -1.14603114561028      1.07474878646286
  N   1.74315317122201      1.21324814284881      2.16454597793787
  N   4.21229342811753      1.14489063023057      1.07259029275531
  N   3.45470878577034     -1.08736979459885      2.34964678876539
  C   0.06994839119273     -0.58487740632070      2.05688899367562
  C   0.80537208764641      0.39268630199062      2.99826669798379
  C   2.77478598000516      2.06962428645776      2.87383176140569
  C   3.82760772921846      2.40242265428252      1.80730137224520
  C   5.33202346910238      0.31267070277855      1.68728904480531
  C   4.82210756086096     -1.13731704064437      1.72927265256153
  C   2.65913469808728     -2.37819508616144      2.55105370387772
  C   1.68852689989899     -2.49097358549167      1.36980106407196
  C   -1.07209606994932      0.09644833138676      1.27617928925052
  C   -1.87403773470035     -0.86608466051047      0.38372168952767
  C   2.12583595230040      3.30781718732038      3.51975763106511
  C   3.14467027655038      4.17533509731596      4.28479999175833
  C   6.64846603329626      0.46937516177436      0.90957097594873
  C   7.19180625940371      1.90848302493542      0.90332167516364
  C   3.54047882261419     -3.62236210444837      2.75642436827562
  C   2.70965065496603     -4.87342377417944      3.10103849665208
  H   0.63672611962275     -1.19395163037747      0.15166945938702
  H   4.48328383321037      1.40416756956306      0.11377391519067
  H   3.56286014271047     -0.64029881504198      3.26794288286470
  H   -0.33597400514468     -1.41733814796503      2.64853498398114
  H   -1.74357104069486      0.54820508585691      2.01911250447021
  H   -0.66635290390859      0.91856949922074      0.66380193205287
  H   -2.27577384195684     -1.70553512750267      0.96581379510077
  H   -1.28159414032594     -1.27130361244052     -0.45033524475817
  H   -2.71752445289410     -0.33205684786713     -0.06674397752054
  H   0.09173993002784      1.04709541609404      3.51407705171894
  H   1.40697515275076     -0.12088340034045      3.75566034242743
  H   3.20960032817643      1.42959586156667      3.65567887144906
  H   1.63614873088090      3.90472319029633      2.73503283661641
  H   1.34280210664622      2.97267113554349      4.21399255183309
  H   3.88501005283474      4.62698188400341      3.61313233958076
  H   4.71167842990801      2.87013624627582      2.25345916481745
  H   3.40620951998764      3.08889877772876      1.06273989515694
  H   5.46620480046073      0.67636262629480      2.71762964115400
  H   7.38676770005811     -0.20206172948359      1.36961853630696
  H   6.49763635826485      0.11106582631510     -0.12109245252171
  H   7.36175017212537      2.27638650910596      1.92398270743086
  H   8.15034092609405      1.93923668427347      0.37443166054241
  H   6.51790705028174      2.60630537189082      0.38574161369938
  H   4.72674752498370     -1.55095365845235      0.71275496361245
  H   5.49741627161566     -1.78646278543671      2.29991986358424
  H   2.08008484172890     -2.20588527024599      3.46817797849048
  H   4.13630840770930     -3.80791423386802      1.85107585201362
  H   2.06813093662003     -5.18370252744026      2.26676114783227
  H   3.38348970271605     -5.70773754518179      3.32422328914691
  H   2.08105663556927     -4.70531090723799      3.98558420260861
  H   2.21371979654760     -2.80454599537802      0.45637319145113
  H   0.89802225449579     -3.22398455002662      1.57467075067693
  H   1.19229840007585      1.82117793853076      1.53731658386129
  H   3.67133389973829      3.59196297391971      5.05153445292364
  H   2.61639869086861      4.99153055646116      4.78949761536584
  H   4.24202541438673     -3.41744709307052      3.57803021212723
