44
Coordinates from ORCA-job CUXRIZ-OH_2_6_tpss_d4_lanl2dz_631gpol_Fe2.opt
  Fe  16.03073292048736      1.59049341349164     16.89798177519086
  S   17.73876131765805      3.07904542657726     15.62365497402819
  S   17.92117708341332     -0.16209652790848     16.49695852080972
  S   16.50832132466428      1.00982875579176     19.38286039132076
  N   15.54356715648346      1.15918220215934     14.89872216338640
  N   14.93189350434053     -0.21313813288146     17.10253427134198
  O   15.02913340061811      2.99782990473830     17.34127382752836
  C   15.88679468290209      1.90489359395097     13.83946866272489
  C   15.48712149990315      1.53233001383211     12.53575747590069
  H   15.77712274031068      2.14687865936020     11.68689291596365
  C   14.71957153572444      0.38725930408318     12.35042274003206
  H   14.40895925117640      0.09578080662202     11.34882432815160
  C   14.34382056448858     -0.40711260100725     13.46532335229059
  C   13.56054632333318     -1.61028091459490     13.39272853106866
  H   13.21151342448780     -1.94989228716364     12.41999035520197
  C   13.25353505704898     -2.32533845599024     14.52602679426377
  H   12.66092995753252     -3.23484703150682     14.45544534017322
  C   13.70218115806183     -1.89256971393205     15.82165960064137
  C   13.44105631642568     -2.57424669763780     17.03939957179664
  H   12.86081162633065     -3.49506446889523     17.03148536696051
  C   13.92851017656401     -2.06834229815797     18.23813988379657
  H   13.73128264545486     -2.58296585611984     19.17572228718026
  C   14.67711706192473     -0.86723258872642     18.24384030786011
  C   14.46716267544417     -0.70378616736442     15.91532574880641
  C   14.79147267544685      0.03596253186331     14.73510650141733
  C   16.66590635709813      3.17283491873539     14.11955103244026
  H   15.97464021835649      4.00108876191145     14.33444856397581
  H   17.28577249654201      3.47398091232014     13.26746064910344
  C   19.04675523333193      1.87606588436879     15.08469701237462
  H   18.68303442770263      1.32952234143359     14.20568243073441
  H   19.93130921671908      2.45753042172059     14.80027764988277
  C   19.39822041428584      0.91708342332652     16.23062441517934
  H   19.65113619672310      1.46050308076255     17.14907028469276
  H   20.24722078562854      0.28754189744136     15.93949984761408
  C   18.18895264582959     -0.94759175504679     18.13964454511386
  H   17.44760494316495     -1.75564366036378     18.16903362586428
  H   19.18067043468266     -1.41826277098280     18.14179477872519
  C   18.04328615912065     -0.00831537751703     19.34059212776419
  H   18.84920572556006      0.73588808279019     19.37445037886250
  H   18.09545039704215     -0.57992404801724     20.27697306618599
  C   15.16203128499187     -0.24859891794788     19.54000451948314
  H   15.48635140518867     -1.01198425666579     20.25808242149661
  H   14.33575523366465      0.30170489112615     20.01413102395013
  H   14.99722034414032      3.80090530002103     17.90079593871897
