42
Coordinates from ORCA-job CUXRIZ_2_1_tpss_d4_lanl2dz_631gpol_Fe2.opt
  Fe  16.26872254926559      1.16441224346377     16.69834938903930
  S   17.55492858170017      2.89085326959349     15.88931872007799
  S   17.96992285474204     -0.25242699375703     16.45547232516445
  S   16.53697707650943      1.18173258984957     18.96447174684445
  N   15.67506124468288      1.00851726919668     14.88837006706220
  N   15.05648333666649     -0.28215308110870     17.00940779085139
  C   15.94775733034668      1.84181455703540     13.86580647094233
  C   15.46649512209936      1.55227292795770     12.56662493201623
  H   15.70514644712996      2.22675512799217     11.74807342699719
  C   14.68121022944141      0.42370654922156     12.33982523282755
  H   14.32013226701004      0.20761644594913     11.33634061840473
  C   14.32816391533420     -0.42541227197511     13.42497580320703
  C   13.46147315736011     -1.57494826624370     13.37665021184035
  H   13.04914168443579     -1.88032014368579     12.41756351700389
  C   13.12821820269175     -2.27162787221914     14.51943583662228
  H   12.45494675248401     -3.12358843463080     14.45642756727193
  C   13.63214104675274     -1.88024894749811     15.81100691077190
  C   13.30361835672235     -2.46277720924610     17.06670391013606
  H   12.62961782382084     -3.31572744180325     17.11406371585935
  C   13.82755850610970     -1.92676136383178     18.24039505865899
  H   13.55643999372522     -2.35035148754629     19.20431128832378
  C   14.71000444622409     -0.81950790035828     18.19347695925912
  C   14.51930500246550     -0.78642401346789     15.85426940036664
  C   14.86258276278032     -0.07221173643795     14.68054961067411
  C   16.69926807375883      3.09612317738298     14.24192175708455
  H   16.00068537862280      3.93473815032621     14.37339833265235
  H   17.44001748725367      3.40479235734459     13.49501771043892
  C   19.05422040519493      1.96102340495235     15.26809465255997
  H   18.80076985262679      1.53181715025980     14.29114752373693
  H   19.86913628208746      2.68340204735173     15.14745193586047
  C   19.43761629783916      0.87394662138781     16.26215772514167
  H   19.70628256456935      1.29624085517521     17.23643229642762
  H   20.27417470386718      0.27310172071341     15.88494117795448
  C   18.26757645956653     -0.88696249126323     18.17566482466189
  H   17.54138989756799     -1.69844375746579     18.30444382706028
  H   19.27248034471423     -1.32795494631571     18.20122550701822
  C   18.09439402858191      0.20904442191314     19.22083096308586
  H   18.90159799298781      0.94962804585833     19.19490539245109
  H   18.06866876907931     -0.20648206741948     20.23568431187493
  C   15.27407564293980     -0.13210227870096     19.41207328071147
  H   15.73457392124317     -0.83124023078882     20.12087650617269
  H   14.47842320699795      0.39743400283889     19.95484176488277
