42
Coordinates from ORCA-job CUXRIZ_2_3_tpss_d4_lanl2dz_631gpol_Fe2.opt
  Fe  16.27284477383703      1.07364958219434     16.65211505830447
  S   17.58912989585396      2.80906878398962     15.82488058075068
  S   18.29227264678200     -0.36044365696976     16.57405696411611
  S   16.46877470734591      1.11046827296423     18.96859538108072
  N   15.60073941570398      1.01570100464627     14.84257416334934
  N   14.98160367247866     -0.31955865889546     16.98259085066309
  C   15.91445929808229      1.82448226948912     13.81451068714258
  C   15.41158779101139      1.55321584119837     12.52009633257307
  H   15.67715573218497      2.20937951503862     11.69503946547346
  C   14.56881844265322      0.46450104062252     12.30909507743869
  H   14.18512556974696      0.26269408415945     11.31090441423491
  C   14.19321469473998     -0.37068396603846     13.39781369144658
  C   13.29802752397697     -1.49744124414489     13.34358587030888
  H   12.86750768517659     -1.77848490400454     12.38503725622873
  C   12.97087291377192     -2.20776394805049     14.47834259703473
  H   12.28363124422129     -3.04832383713386     14.41252091576707
  C   13.50968729909752     -1.85297420423078     15.76593762025556
  C   13.21168925863379     -2.47906751344970     17.00827480936137
  H   12.52598209939993     -3.32342769826512     17.04193230083720
  C   13.78254057175532     -2.00290663705175     18.18503817674615
  H   13.53914781864899     -2.46500182449077     19.13861555226455
  C   14.67502001268473     -0.90371994850187     18.15327376401277
  C   14.40866501254346     -0.76836600625712     15.82144344265873
  C   14.74729318348997     -0.03736644261112     14.65119546161969
  C   16.74145022597378      3.03181589453917     14.17776569666634
  H   16.09379957498120      3.91176081195658     14.30140434880783
  H   17.49596342001896      3.28716897807588     13.42427749792922
  C   19.11924698224798      1.90359466143868     15.25771436779114
  H   18.87187691544520      1.37542051295133     14.32854369130178
  H   19.88824169294078      2.65718907310839     15.05105577652034
  C   19.59818761200757      0.93079426287177     16.33309175175889
  H   19.79201445083834      1.44300309912721     17.28248436449033
  H   20.51994158992181      0.43923166213588     16.00095976863271
  C   18.47919218599678     -0.80119406646548     18.35388366125047
  H   17.83001703503776     -1.67624976538223     18.48399826678947
  H   19.51081378301066     -1.13146178193710     18.52998065567929
  C   18.10695317544956      0.32904272554857     19.31493377850171
  H   18.81752845559808      1.16337619559158     19.27007508715753
  H   18.09477211538930     -0.02459338942295     20.35426212503537
  C   15.29049756038141     -0.28491453567515     19.38385047182780
  H   15.82366110388175     -1.02062131149253     19.99927896633635
  H   14.51145085705758      0.16030706882356     20.01796928985351
