43
Coordinates from ORCA-job CUXRIZ-oxo_2_1_tpss_d4_lanl2dz_631gpol_Fe2.opt
  Fe  16.16164256583067      1.31649690739178     16.74601465442132
  S   17.62082183360654      2.92505232127095     15.87233536237045
  S   17.95385232512512     -0.31246156685941     16.41466941365417
  S   16.59238668782073      1.19107298991937     19.04191133421025
  N   15.66882237825601      1.06606456755455     14.90745952360675
  N   15.04922263096251     -0.22493026590209     17.04182879974865
  O   15.03572395717709      2.48250522104537     17.03716966649409
  C   15.94225656824666      1.90567731972153     13.89796641438204
  C   15.49758381196088      1.58987634519241     12.59149354093902
  H   15.73299831899949      2.26323943228343     11.77118756234794
  C   14.74452684132566      0.43840939926882     12.36239318389087
  H   14.40500359351465      0.20809977388343     11.35455695168198
  C   14.39658578944080     -0.41576515438729     13.44457270816912
  C   13.57106208224264     -1.59613592055937     13.39443470404326
  H   13.18530046878215     -1.92472178794655     12.43201502107756
  C   13.24724286006273     -2.29727242604737     14.53731552338125
  H   12.60927911287988     -3.17556223772389     14.46938827561093
  C   13.71593904240457     -1.88023605489470     15.83509732832915
  C   13.40189696073105     -2.46723593791443     17.09146453911819
  H   12.76272284533703     -3.34667388483369     17.13837547153491
  C   13.89268157904458     -1.90642960465487     18.26972351635959
  H   13.63033544289165     -2.33843073462068     19.23229419714694
  C   14.71798329392080     -0.75574735160984     18.22805451513403
  C   14.55700671173038     -0.74981895223344     15.88222854135792
  C   14.89536732490907     -0.03562850984467     14.70767441701880
  C   16.64645882079642      3.17587728794538     14.30538184842981
  H   15.90702289138675      3.94819118565520     14.56222005644928
  H   17.31021284070572      3.58167946112050     13.53350680993995
  C   19.00527400480863      1.88693471727307     15.18684832202950
  H   18.66829474851191      1.43772248161135     14.24445667303876
  H   19.84893374231054      2.55694441614071     14.98243452078895
  C   19.40767574658535      0.81501713851766     16.19761546026310
  H   19.68712106046673      1.25515032515356     17.16138902083452
  H   20.24935794429950      0.22649344394582     15.81411207370232
  C   18.18792538948216     -0.97189049275107     18.12137587683466
  H   17.41495869323012     -1.74323140778748     18.22426317781171
  H   19.16181709424163     -1.47627806206543     18.16614246928183
  C   18.07320921726368      0.10212690166360     19.20133121865717
  H   18.92229731790142      0.79624587129036     19.18454349618632
  H   18.05381954015386     -0.34859066524080     20.20273210825036
  C   15.21371908338022     -0.00409003325386     19.43829682959134
  H   15.54318015661484     -0.66346054408089     20.25029019460578
  H   14.40837668065665      0.63011408736293     19.83663467727483
