48
Coordinates from ORCA-job CUXRIZ-CH3OH_2_5_tpss_d4_lanl2dz_631gpol_Fe2.opt
  Fe  16.21643805353822      1.42418026253933     16.83959477794604
  S   17.85830410913163      2.92588220201037     15.55023840827779
  S   18.03863355201799     -0.38469919114148     16.35721337788784
  S   16.68340787208648      0.89902840966641     19.27385793834840
  N   15.61606682386018      1.04946523835455     14.85565571860842
  N   15.03388326834839     -0.31718737256635     17.07596031717044
  O   15.07812461393737      3.13647586418505     17.21904929355125
  C   15.99082520653548      1.75161192099375     13.77715292013813
  C   15.62026729118938      1.34114183806762     12.47551528581411
  H   15.93360322567468      1.92697777190996     11.61456874565016
  C   14.85198250041940      0.19426479873752     12.30791781027872
  H   14.56125729803783     -0.12768186713878     11.30969739064329
  C   14.45861225777796     -0.56873417244628     13.43817457009802
  C   13.69644567651108     -1.78643747511701     13.37975647989351
  H   13.36640085522457     -2.15109853603094     12.40934333388238
  C   13.39476445141993     -2.48952506264974     14.52151587374629
  H   12.82428434263232     -3.41386496395644     14.46085533155917
  C   13.83227953550523     -2.03115780935686     15.81207215994966
  C   13.60353698624331     -2.71791895378795     17.03284441803629
  H   13.04672565562308     -3.65317661223122     17.03177135703722
  C   14.10159196174220     -2.20471838395759     18.22486716519887
  H   13.93714993751162     -2.72938074802065     19.16330115030325
  C   14.82384358045672     -0.98852331231211     18.21701717452392
  C   14.56477265901270     -0.81993936645070     15.89443908036223
  C   14.87724973623615     -0.08620565298962     14.70438400594033
  C   16.79227335338218      3.01169825507511     14.03438296646427
  H   16.12373119412545      3.86272083295255     14.22738753512520
  H   17.42051689687244      3.28081880669769     13.17786547808715
  C   19.16374578933232      1.71760583681573     15.00597977865001
  H   18.79686976848465      1.20313316030789     14.10908404482819
  H   20.05504813779879      2.29674339768289     14.74034229525003
  C   19.50124680267201      0.72023217609014     16.11964948813172
  H   19.73977314533663      1.23664591263808     17.05721986081244
  H   20.36155298334920      0.11041976110469     15.81887457657242
  C   18.30878218328062     -1.10876287623107     18.02873820948491
  H   17.54563035021547     -1.89321163163181     18.10588302137010
  H   19.28592068722447     -1.60915774392232     18.03718972599633
  C   18.21777713745356     -0.12367300158245     19.19751102890991
  H   19.02422523328656      0.61970935823689     19.16974283907607
  H   18.30806126197861     -0.66050284576583     20.15090893120792
  C   15.35374863402040     -0.37184576354916     19.49890612351476
  H   15.71910286702709     -1.13695225362686     20.19498227927000
  H   14.54715408701677      0.16517538747779     20.01869302362286
  C   15.38000684434979      4.23276406105420     18.15512206299816
  H   16.46822886582949      4.26280444299485     18.23341996357097
  H   15.00267296025144      5.16979577491421     17.73666633029746
  H   14.92844477323377      4.02243108347636     19.12917775563388
  H   14.11670459280331      3.10780904247956     17.03723859627840
