54
Coordinates from ORCA-job AYIPEE-CH3OH_1_2_tpss_d4_lanl2dz_631gpol_Co2.opt
  Co  3.60350008746979      4.61777673249963      3.64134165556836
  Cl  3.95308462225942      6.37021706359766      2.15030827819416
  S   5.97280127708687      2.02123880528059      2.97009530773326
  N   3.74317459589424      3.17086531971761      2.09616469874948
  N   1.80307792597719      4.69227992907622      2.96147319372100
  C   2.72079564352330      3.33470300029250      1.21851693836120
  C   4.73815620986280      2.32597391403032      1.73748835972077
  C   1.60199908838518      4.14565740247616      1.72839273397960
  C   2.74372252006298      2.71686210687994     -0.03695103363998
  H   1.94974177802745      2.85230508860981     -0.76417305441178
  C   0.81537293669284      5.39086581899872      3.55459565446423
  H   1.06378328525973      5.81839114174114      4.52099233851591
  N   4.84138486896205      1.69586700267573      0.55600422852105
  C   -0.42760348931134      5.57155087023857      2.94564813918914
  H   -1.19875801415097      6.13924384963360      3.45929991206554
  C   3.85311051382225      1.91866569367969     -0.32543022154950
  H   3.95527551323323      1.42518581849342     -1.29121611779152
  C   0.38031046129765      4.29939413531660      1.06603900665450
  H   0.22987167202963      3.85649541666182      0.08586772417015
  C   6.99986966796518      0.77795233445107      2.09999005079607
  H   7.79774399345003      0.51582645436026      2.80388721501468
  H   7.42506148768372      1.20735968987277      1.18911951574327
  H   6.40490446482256     -0.10670651083498      1.85811551047294
  C   -0.64775144873536      5.02050990829204      1.67965062825987
  H   -1.60264955031373      5.14848890195114      1.17525793317178
  O   3.10000640206622      6.46793916008145      5.03660860927399
  S   1.19286115418861      2.09749876431434      4.20695316209283
  N   3.37192014607627      3.37048337074638      5.15761292706331
  N   5.39107344924875      4.74954124464579      4.33837749875799
  C   4.39455049117618      3.46246652089571      6.06343432914763
  C   2.37272260251734      2.48643432599142      5.46288170370608
  C   5.54997594881290      4.22671340611181      5.59038394286184
  C   4.33734025577119      2.81116339884442      7.29914996523300
  H   5.13755912090030      2.89416367904937      8.02732796502749
  C   6.43580976689935      5.37216112485491      3.74934114310328
  H   6.24885501788595      5.75980908004312      2.75337050795465
  N   2.24440576947361      1.85346079948444      6.63957887355579
  C   7.66490730305411      5.52286292801946      4.39443432554764
  H   8.47534580515466      6.03175577554864      3.87945284005300
  C   3.20167712052779      2.04443555469802      7.55785116764222
  H   3.05629561314100      1.54492064542926      8.51474474102584
  C   6.75461403454661      4.35571461077806      6.29138278751173
  H   6.85741787946824      3.93666865240067      7.28815567171568
  C   0.24217307501878      0.78533099463315      5.06181839804376
  H   -0.51401676172475      0.46754683570936      4.33470215832049
  H   -0.23890804808418      1.18352325932275      5.95865850250568
  H   0.89215771286627     -0.05451778696514      5.32107849067004
  C   7.82705771462431      5.01755719331794      5.68873616117522
  H   8.77126192445638      5.12697649856544      6.21708340647537
  C   3.84322665998673      6.97205746571665      6.16532783163417
  H   4.92042935414617      7.01003515470544      5.95273234488350
  H   3.48561141225544      7.97322799886871      6.43769181036656
  H   3.65512507309551      6.28473309849103      6.99514525730091
  H   3.31345389119339      7.02532635770516      4.24619488167594
