50
Coordinates from ORCA-job AYIPEE-OH_1_1_tpss_d4_lanl2dz_631gpol_Co2.opt
  Co  3.58949643970711      4.70590044157555      3.75224355048567
  Cl  3.95038081043408      6.40255813883681      2.28074705062134
  S   5.89410457794977      2.12227970131461      3.18558558347607
  N   3.72499354155159      3.39147619624252      2.25181804147207
  N   1.77461883273671      4.81752351814365      3.12856026134100
  C   2.68961129573181      3.52323323758885      1.37161537327731
  C   4.69523875881835      2.49094005398716      1.94155231983918
  C   1.56940843521325      4.32460177838280      1.87774335777913
  C   2.70119614868814      2.85945713250268      0.14375673777378
  H   1.89391682027327      2.96728835466868     -0.57320588390889
  C   0.81215533933628      5.49937437341176      3.76734638687799
  H   1.11160853856741      5.88415232690467      4.73984161535570
  N   4.77882183952344      1.83388388405373      0.77345539387888
  C   -0.43695483985491      5.70535648726088      3.17321435881908
  H   -1.20286591371608      6.25386490249818      3.71492988551964
  C   3.80641428135314      2.04876551665314     -0.12344147457258
  H   3.91239395366579      1.53218112928440     -1.07647351339027
  C   0.34945930598781      4.51534038545338      1.22503299523909
  H   0.19218602293064      4.12553033292057      0.22343461179254
  C   6.82702703585720      0.78977556443903      2.34120753933646
  H   7.60103592677272      0.48821651185254      3.05604059641390
  H   7.28529107628831      1.16952296465547      1.42462079622811
  H   6.17079503418912     -0.05500363203036      2.11640887131777
  C   -0.66760424073091      5.21485811913483      1.88429160224812
  H   -1.62459532194848      5.37536777654430      1.39321286021956
  O   3.19582731962548      5.90068043113350      5.11899352980096
  S   1.34796398796750      1.98997634763975      4.11063477088151
  N   3.39908414690539      3.37328734302301      5.16706486272176
  N   5.39738669399743      4.81165797354789      4.40339363731793
  C   4.33583884478597      3.59342770566528      6.13587566263917
  C   2.42260476026019      2.46299606312668      5.42908640688244
  C   5.48900263233562      4.38240213347470      5.69296898627080
  C   4.22006199636253      2.99467816774711      7.39210926416477
  H   4.94702489472554      3.17011679722221      8.17803067964051
  C   6.44673074719698      5.41692645566333      3.81953522633231
  H   6.29921663566336      5.73830111691596      2.79397162991182
  N   2.24735526335884      1.86866841279880      6.61976738146768
  C   7.64091202755243      5.63514952196325      4.51316134981283
  H   8.46705681600820      6.12686265151756      4.00691596753051
  C   3.11810265316648      2.16355922861000      7.59509771067808
  H   2.92986005391249      1.69637636119509      8.56078503207674
  C   6.65256973112840      4.57958413242283      6.44144517653481
  H   6.71236237034343      4.23110995547931      7.46828700734157
  C   0.35736743516187      0.69927925940850      4.95315993788677
  H   -0.34457044213299      0.34067125058973      4.19172487650136
  H   -0.18676486069457      1.12915311375710      5.79780059092837
  H   0.99937486311225     -0.11852805458572      5.29016931357703
  C   7.74093322054184      5.22487132719675      5.84530667737215
  H   8.65326173681924      5.39439537674029      6.41240628914341
  H   3.46088277257024      6.77070173146702      4.74421911514381
