50
Coordinates from ORCA-job AYIPEE-OH_1_3_tpss_d4_lanl2dz_631gpol_Co2.opt
  Co  3.51805867600509      4.86651361274131      3.70760025736366
  Cl  4.11721224757735      6.26934478747699      1.80408347242376
  S   5.98503545863613      2.35804477885081      3.16181396238773
  N   3.64906948571614      3.37166244813431      2.29444332521440
  N   1.70818356672738      4.96461002735237      2.98686059269487
  C   2.59208464426652      3.40412049573145      1.43000780666370
  C   4.64880810038404      2.49156782556532      2.01620038257295
  C   1.49845490565316      4.29775360958204      1.81951719661431
  C   2.57051607179823      2.60544953073468      0.28523890014640
  H   1.74245796291367      2.62938659252634     -0.41489543618825
  C   0.76702978736350      5.78548545928406      3.47799071938535
  H   1.03338905736104      6.29845592357321      4.39733016061711
  N   4.69327793234557      1.69990989741500      0.93209644495125
  C   -0.45330291964700      5.96951618996771      2.82244037399588
  H   -1.19401256850268      6.63927288709924      3.25067019953453
  C   3.67072510410822      1.77561573301242      0.07145633682997
  H   3.73887485426257      1.14002826527403     -0.81050244668400
  C   0.30138138495060      4.44776735370957      1.11276602713828
  H   0.14319815340495      3.91732721329440      0.17870557885630
  C   6.98696078604247      1.06102831127904      2.34394678968988
  H   7.84891781187847      0.91190072654172      3.00436712702696
  H   7.31886092606107      1.40289014207087      1.36036740149477
  H   6.41542956660456      0.13402538544871      2.25213673581895
  C   -0.68740962188327      5.29556145319264      1.62047454764698
  H   -1.62217150249063      5.42872172274965      1.08098017731629
  O   3.01347810722458      6.06414280104366      4.93109705603735
  S   1.19217634961470      2.13037168035319      4.29372982313877
  N   3.44833264927105      3.21227519571108      5.20246461965461
  N   5.33569280786551      4.95609742517842      4.52768421312421
  C   4.45085387506768      3.35687092268999      6.09964917864290
  C   2.46039317955335      2.33625129167574      5.50491162291399
  C   5.54275623747067      4.25988954032285      5.68298128171303
  C   4.44138724746509      2.65668094946282      7.31203125003475
  H   5.22011551032586      2.77266206781978      8.05860284476980
  C   6.31318263523652      5.74824315455698      4.03983975876014
  H   6.06773865863252      6.27139169138306      3.11757711872900
  N   2.38209889696973      1.61235470669190      6.63661298645646
  C   7.54817416578952      5.87574626044884      4.68190093609540
  H   8.30753649207107      6.52131555481767      4.24904033070346
  C   3.36519628744022      1.79226976852472      7.52984450177294
  H   3.28493153796660      1.21605699161919      8.45101593345455
  C   6.75917299018173      4.35140235157296      6.36951364831131
  H   6.91856511057985      3.77583946095843      7.27628602514568
  C   0.16243145932891      0.85114589310718      5.10642492684441
  H   -0.65395236745897      0.65037539186230      4.40363332838194
  H   -0.23737221280073      1.22835634259764      6.05121154001286
  H   0.74576594396017     -0.05742171795253      5.27685844304531
  C   7.77533101396751      5.16879264237314      5.86500750082854
  H   8.72605008653409      5.24482913235557      6.38788441441888
  H   3.78651346620540      6.40085012821733      5.43355008349747
