48
Coordinates from ORCA-job AYIPEE_1_2_tpss_d4_lanl2dz_631gpol_Co2.opt
  Co  3.60598916204598      4.66153667006190      3.68989697148519
  Cl  3.90311776676941      6.47407600525136      2.37128799555095
  S   5.95231800038339      2.13800535115458      3.03383007188112
  N   3.70011882182228      3.24565582833100      2.17397572875965
  N   1.80000623893470      4.77641051054665      3.05127789383325
  C   2.65668856062048      3.38714681540246      1.31564761373797
  C   4.68290031260914      2.38059472314034      1.82657681895787
  C   1.56650514299742      4.23750581295412      1.82191612811545
  C   2.64049546673956      2.71444363032026      0.08949584154388
  H   1.82637689809062      2.82401236927601     -0.61975991304367
  C   0.85734328457179      5.52884390546791      3.64828372808694
  H   1.12070819706977      5.94511396332532      4.61648919446714
  N   4.74469303006520      1.69824275317995      0.67182552264021
  C   -0.38016390164896      5.76940568449724      3.05001118449562
  H   -1.11756187010554      6.37933515181142      3.56437211613720
  C   3.73312170493699      1.88919764953725     -0.19018617176358
  H   3.80173213149336      1.34777091179127     -1.13288833340743
  C   0.35044667699009      4.45076647684031      1.16621056656315
  H   0.17342938956539      4.01913454089208      0.18534745344346
  C   6.96171057342497      0.86308696514403      2.18808716534715
  H   7.78050152248212      0.63435529423609      2.87931949545838
  H   7.35897538096595      1.25635002873941      1.24871521628264
  H   6.36474853042856     -0.03333303597502      2.00058904981454
  C   -0.63441654511049      5.22492599433780      1.78656990831549
  H   -1.58424916238697      5.40291084194309      1.28811053977484
  S   1.21297654414357      2.14777736764333      4.24627394195076
  N   3.35142336506053      3.47181741954962      5.22950231048412
  N   5.36405802672066      4.87078553963205      4.44449432152053
  C   4.34466786174658      3.60289002515135      6.16691179580508
  C   2.36127434205794      2.56847256391211      5.52093223589041
  C   5.49011594996523      4.39471779628538      5.71918466794350
  C   4.26865722186901      2.96157334409438      7.40632228357015
  H   5.04503112996614      3.07585178638461      8.15554874070250
  C   6.41379145072494      5.50124895207942      3.87145647279114
  H   6.25483954908345      5.85294083107088      2.85800846961686
  N   2.22090258096445      1.94346238982545      6.69866498854334
  C   7.61277251884865      5.70672073005032      4.55568362276218
  H   8.42897179018402      6.21790962844911      4.05245973102192
  C   3.14898387414994      2.16510352582386      7.64056798931400
  H   2.99216818831410      1.66689728874784      8.59616880536715
  C   6.65950486929868      4.59126327136776      6.46329025548540
  H   6.73179909891991      4.21879418099301      7.48090686794555
  C   0.26357750810543      0.83090465623121      5.09543683489430
  H   -0.47595802567829      0.49806937966936      4.35803661403002
  H   -0.23735757358897      1.23091312841678      5.98043775460967
  H   0.91997543904226      0.00186440847153      5.37239116174200
  C   7.73558525652827      5.26043058471689      5.87586285930724
  H   8.65310371981794      5.42209635922659      6.43665548822447
