15
rings containing neighbours atoms
Fe   -0.210200    0.496300    5.734000
N    -2.158500    0.202400    5.611900
N    -0.428000   -0.657700    7.206800
N     1.652900    0.492500    6.399900
N     0.122500   -0.907100    4.371800
N     0.047900    1.591400    4.223800
N    -0.500000    2.263100    6.591000
C    -2.667100   -0.691700    6.523500
C    -1.653400   -1.210700    7.450400
C     0.640800   -0.995100    7.959200
C     0.389100   -0.429100    3.105300
C     0.369500    1.036700    3.030500
C    -0.054400    2.932100    4.357200
C     1.855700   -0.287400    7.519600
C    -0.434500    3.314800    5.730800
