116
only MM atoms
C    29.412100    0.577500   14.461500
C    28.588000   -0.318200   15.126800
H    28.410900   -0.206600   16.052900
C    28.022200   -1.388800   14.421300
H    27.469500   -2.012800   14.873100
C    28.267000   -1.538600   13.080800
H    27.862800   -2.254600   12.605500
C    29.078700   -0.674200   12.426500
H    29.245700   -0.791100   11.498500
C    29.672200    0.386300   13.105900
N    30.560800    1.274900   12.440000
H    31.331400    1.432700   12.838900
C    30.356800    1.899900   11.268100
O    29.395400    1.642800   10.563200
C    31.332400    2.977900   10.898900
C    31.421200    3.355900    9.565100
H    30.902600    2.905000    8.909700
C    32.257800    4.382100    9.190000
H    32.308300    4.636600    8.275900
C    33.011900    5.038700   10.118400
H    33.592200    5.735300    9.836900
C    32.949200    4.713900   11.458400
C    32.091300    3.679800   11.842100
H    32.024100    3.450000   12.761800
C    33.738300    5.524300   12.462400
H    33.094900    5.990200   13.053000
H    34.241700    6.218700   11.969500
C    34.730700    4.752100   13.352600
C    35.739300    3.968500   12.434200
O    35.993800    2.729600   12.780400
O    36.251600    4.533300   11.509200
C    34.579200    1.385300   19.118700
C    34.073800    0.571300   20.133700
H    33.155700    0.610900   20.367500
C    34.927100   -0.296700   20.795700
H    34.589400   -0.861400   21.480900
C    36.262200   -0.350300   20.472400
H    36.837500   -0.940500   20.947800
C    36.763100    0.415300   19.493800
H    37.684900    0.360400   19.275400
C    35.928100    1.300900   18.790900
N    36.417000    2.110000   17.727100
H    35.893600    2.179800   17.022900
C    37.604800    2.795100   17.667400
O    38.506500    2.589400   18.470300
C    37.732900    3.770300   16.571300
C    39.006900    4.128500   16.162500
H    39.765600    3.753200   16.596800
C    39.184000    5.024200   15.127900
H    40.057400    5.278200   14.860200
C    38.083300    5.552400   14.479300
H    38.215300    6.139600   13.744600
C    36.773000    5.241300   14.882500
C    36.630400    4.368500   15.958900
H    35.761600    4.175100   16.284100
C    35.572300    5.802100   14.142200
H    35.891000    6.491200   13.506900
H    34.980100    6.249500   14.798100
C    29.616600    7.352600   13.145100
C    30.104800    6.998400   11.897800
H    30.709700    6.271400   11.823900
C    29.723500    7.684400   10.755400
H    30.065200    7.431700    9.905400
C    28.838700    8.747500   10.866800
H    28.575800    9.229200   10.093800
C    28.349500    9.096500   12.087300
H    27.741000    9.822500   12.158000
C    28.727800    8.406000   13.227300
N    28.133000    8.721600   14.478400
H    28.007400    8.060100   15.042200
C    27.734900    9.968400   14.883800
O    28.011500   10.974800   14.244600
C    26.933600   10.016700   16.144900
C    27.316000    9.367600   17.318300
H    28.086100    8.811700   17.329100
C    26.553000    9.538600   18.485300
C    25.409900   10.299300   18.446800
H    24.873800   10.376200   19.226200
C    25.040700   10.943200   17.309800
H    24.257200   11.479300   17.309800
C    25.795400   10.831500   16.140700
H    25.543700   11.299100   15.354800
C    27.026500    9.067400   19.847200
H    27.428900    9.835700   20.324700
H    26.238900    8.767700   20.367500
N    28.002600    7.980600   19.810800
C    34.597700    8.223200   17.971200
C    35.871500    8.041200   17.405900
H    36.033100    7.273500   16.873000
C    36.893000    8.943900   17.601800
H    37.748400    8.794100   17.215600
C    36.663700   10.070800   18.365400
H    37.362700   10.701400   18.500300
C    35.428200   10.287500   18.934300
H    35.271900   11.070600   19.448900
C    34.401100    9.353100   18.751700
N    33.162900    9.475300   19.429400
H    32.645700    8.763300   19.410300
C    32.667100   10.555500   20.109000
O    33.166400   11.667400   20.051900
C    31.480300   10.249200   20.964500
C    30.523500    9.296000   20.643100
H    30.582900    8.855600   19.802200
C    29.485200    8.957600   21.498000
C    29.373600    9.676600   22.695000
H    28.662100    9.484100   23.294500
C    30.288000   10.666300   23.018300
H    30.182000   11.167300   23.819200
C    31.361300   10.927300   22.174300
H    32.013900   11.571600   22.423100
C    28.558300    7.767000   21.137500
H    29.075700    6.921900   21.153300
H    27.827300    7.695400   21.802100
C    27.333800    6.737700   19.323200
H    26.949400    6.895500   18.423200
H    26.591600    6.495600   19.934900
