62
Coordinates from ORCA-job CUKMOL_1_3_tpss_d4_lanl2dz_631gpol_Fe2.opt
  Fe  7.69913794004367      3.02194887265530     15.53282972810578
  Cl  8.39799469848119      0.92216762709319     15.96451530131512
  O   8.94696128116793      4.47546712571878     16.41174576628646
  O   5.76676654719786      4.74726725764190     23.34075176311819
  O   7.58160286153847      6.00790431253469     22.62160369580340
  O   6.59748953886125      4.46864423871685     14.86546384476862
  O   9.36479116127672      5.22565358196111      7.80770725130003
  O   7.71651362684175      6.55725685605147      8.76282715552611
  N   6.90900327912051      3.08554803734753     17.29835953537471
  N   8.41065661578340      3.05603934470572     13.73606681115955
  C   8.60387794212654      4.70681915428775     17.61173455133434
  C   9.29241061990974      5.65493532773666     18.46953044161336
  C   10.40261704164885      6.35834477616235     17.95689513584093
  H   10.70566875132774      6.15993197976838     16.93157381347448
  C   11.08298122855532      7.27277576443916     18.75246586236142
  H   11.94136449736139      7.81322605983883     18.35950448327829
  C   10.65112568393843      7.49169435075392     20.07324562210129
  H   11.17776294216441      8.20584181636512     20.70368878189088
  C   9.55436784615330      6.80450838731093     20.59624075876390
  H   9.24863806134552      6.99452020193515     21.61906200945392
  C   8.84744716751845      5.86713663738217     19.81176088889949
  C   7.70086152380066      5.11284976998663     20.32183005195026
  C   7.02367118480837      4.16139475905143     19.47968936269909
  C   7.46686913312102      3.97671051412356     18.15504993847219
  C   5.87697641521987      2.31960065891913     17.72666580263326
  H   5.49821106102572      1.58758933911827     17.01971301995048
  C   5.35492477592612      2.44950171079384     19.00664653222638
  H   4.52215669756639      1.81751290494124     19.30641825900005
  C   5.90615376949631      3.37168450748601     19.92691919389034
  C   5.40731102618460      3.51820123407879     21.25463027221482
  H   4.56699079834657      2.93388517822251     21.61706183573524
  C   6.05643637079918      4.43150475630557     22.04542850605263
  C   7.16664796389231      5.20447276487687     21.60236286422787
  C   6.73317159670217      5.72435077593398     23.76197493338065
  H   7.34930416628009      5.31031497526843     24.56709583151375
  H   6.22026754079849      6.64425925094403     24.05959113619016
  C   6.87752431545705      4.82651415266156     13.65998240189307
  C   6.22770024137940      5.91860057756228     12.97777181941762
  C   5.22663396165206      6.66312342152056     13.63952349394499
  H   4.97117770872077      6.38932924820134     14.66045091873116
  C   4.59337668757473      7.71539659621463     12.99059440403449
  H   3.82056199528071      8.28933665997478     13.49729537404840
  C   4.96052494957304      8.03409760034902     11.66916032669698
  H   4.46875463196649      8.85812342584118     11.15570963237016
  C   5.94856591678320      7.31039746183326     11.00055997871530
  H   6.20851221785458      7.57957781550554      9.98264035915058
  C   6.60864467355019      6.23355163915389     11.63213578677577
  C   7.64462951840382      5.44268499457419     10.96819397794800
  C   8.28062410712667      4.35385718924704     11.66052918164948
  C   7.89342015623982      4.07148423300896     12.98336937874580
  C   9.36722376798562      2.27009713959039     13.17675655846300
  H   9.73724016474086      1.46486730398661     13.80398699866438
  C   9.82005822546204      2.48288445633228     11.88065275310677
  H   10.58852615366718      1.82586522507637     11.47938907364471
  C   9.29721952029456      3.52436173843263     11.07437058065325
  C   9.73009962020002      3.76339003666538      9.73803754521371
  H   10.49504591846039      3.15411970377088      9.26605417127601
  C   9.12058465528922      4.80540718662246      9.08364559445185
  C   8.11281333976011      5.62104828935292      9.66871561653381
  C   8.47844998339252      6.32653881696873      7.55004855340488
  H   7.78650472071557      6.06274001816626      6.74318925169234
  H   9.06194949213836      7.22444025892917      7.32328552686463
