63
Coordinates from ORCA-job CUKMOL-oxo_1_1_tpss_d4_lanl2dz_631gpol_Fe2.opt
  Fe  7.47734593198711      2.92271324441220     15.52955693520110
  Cl  8.99368144302445      1.44851754014878     16.37808263185661
  O   6.37700811342842      1.82594431295532     15.01453211805550
  O   8.68950474731706      4.41730566955301     16.27988348156799
  O   5.92839101861966      4.72822933955489     23.37833756229364
  O   7.70181365623638      5.98138472377666     22.55194757077943
  O   6.44260698222963      4.45151406093716     14.86186857929982
  O   9.52848657011872      5.28982852908677      7.94404449906557
  O   7.83946098508350      6.60302363367442      8.84926359733732
  N   6.70772805796838      3.05837460780336     17.29047430397729
  N   8.36602682568097      3.05698228791141     13.79049790531494
  C   8.42494659303197      4.65944017065587     17.49821928583355
  C   9.16202468872776      5.61513108928469     18.30136100083391
  C   10.24232880621731      6.31132957631453     17.72017814396772
  H   10.48922395957608      6.10163833962507     16.68226525773161
  C   10.96796076453238      7.23083462592435     18.46841390063443
  H   11.80393884024419      7.76599126205200     18.02349247248988
  C   10.61313537160663      7.45971320070951     19.81030455282239
  H   11.17620865321252      8.17746197157972     20.40391180001842
  C   9.54917032257462      6.77634026908135     20.40209503635596
  H   9.30448090574378      6.97208112128386     21.44016346201030
  C   8.79705020100251      5.83462351797101     19.66716138736011
  C   7.68294018900624      5.08428822947077     20.25099971378923
  C   6.95424660191668      4.13184909336459     19.45592144702502
  C   7.32576724823122      3.93502554168669     18.11362738195611
  C   5.68325747564097      2.31439378298814     17.75731973817601
  H   5.25099334733863      1.62039062816540     17.04277826112110
  C   5.24254128084418      2.44171207355443     19.07069077387676
  H   4.41502554672972      1.82446360122583     19.41280193489221
  C   5.85804802325758      3.34929721109084     19.96301729062808
  C   5.43885389666164      3.50017015923422     21.31907624888216
  H   4.61644550939450      2.92303253337893     21.73070086342447
  C   6.13935513969704      4.40925983145841     22.06859093887742
  C   7.22604013271019      5.17908090172370     21.56049598626862
  C   6.92137868362741      5.70081260661357     23.74160355426738
  H   7.58326461314285      5.28427429608701     24.50823354501188
  H   6.43123247429659      6.62304719482879     24.06857131482128
  C   6.79477892864793      4.80845626477689     13.68860335207111
  C   6.18160134215047      5.91464742820813     12.98649829980381
  C   5.15039327935751      6.64557892333134     13.61451465756165
  H   4.84630990277725      6.35128486507766     14.61604443387221
  C   4.54519383224049      7.70883779745313     12.95565367325251
  H   3.74909533344480      8.27306496731401     13.43611869340350
  C   4.97035142149259      8.04753608735433     11.65771014469175
  H   4.50060430274146      8.87831533379924     11.13462731392965
  C   5.98763690557473      7.33366519809622     11.02150491284849
  H   6.28979384194696      7.61818163540206     10.01973043758081
  C   6.62068016470380      6.24897053931793     11.66549485511024
  C   7.68567917843132      5.46680298327849     11.03538726944567
  C   8.29664079719256      4.37266724789180     11.74208020928650
  C   7.85624290938663      4.06358382432188     13.04129442549106
  C   9.34491566666068      2.28510158687333     13.27795533367363
  H   9.70873402860155      1.49447960267202     13.92829047440710
  C   9.84332626506331      2.50920433261814     11.99535478315521
  H   10.63002632383957      1.86137308535584     11.61545630146617
  C   9.34279509263951      3.55377113558322     11.18717663001910
  C   9.82792033759742      3.80988495215761      9.86872196378776
  H   10.61440407153450      3.20892416998309      9.42251666391213
  C   9.23972504454173      4.85355146555637      9.20321292226392
  C   8.20304260518058      5.66064234759728      9.75949682952354
  C   8.65102188937569      6.39237008079082      7.66497937224697
  H   7.99346737731603      6.13840874170042      6.82733307206576
  H   9.24110555690092      7.29459462432107      7.47645849730352
