54
Coordinates from ORCA-job KIPGAR-CH3OH_0_4_tpss_d4_lanl2dz_631gpol_Mn2.opt
  Mn  12.91152016188059      2.21397450669266      1.11184614457536
  O   11.25325259461349     -0.38025948479314      2.96225061021176
  O   11.49937638491771      0.83625249404867      1.03273597112577
  C   11.23778855551635     -0.21908388424499      1.73842703935698
  C   10.92187468180046     -1.44812971206100      0.84211901292332
  F   12.10428527437888     -2.00461656667940      0.41310660507105
  F   10.21754569229541     -1.11718201425053     -0.27513442491487
  F   10.23720729889479     -2.40641609279493      1.49741723482050
  N   14.12084805419781      1.09778294945154      2.65891917569616
  C   14.51971864316789      1.68031896878293      3.81300354784214
  C   15.12199947686696      0.95980634625970      4.84751540091979
  C   15.31460379138156     -0.41811087994185      4.69367474656212
  C   14.90365456588818     -1.02410970872934      3.50083257224347
  C   14.31670522885683     -0.23113403117157      2.51394157492535
  N   13.87082614945678      1.24374346372475     -0.35332658676053
  C   13.19036371787794      0.46516978222371     -1.24037932338825
  C   13.82316312392276     -0.19265952971090     -2.29191979491181
  C   15.20662455436437     -0.05045584160235     -2.46447101275308
  C   15.90488433454783      0.76264217018875     -1.56088883128586
  C   15.21464205066484      1.38617709957076     -0.52528864400038
  H   14.36567544097864      2.75628038094061      3.87030414484979
  H   15.43046421207693      1.47589614610036      5.75435670563514
  H   15.77496302569161     -1.00712311275546      5.48535992175231
  H   15.02785649661323     -2.09194247479171      3.33466922109665
  H   13.97728112876986     -0.66202395116735      1.57473416310818
  H   12.12286422550992      0.39341942210880     -1.06760349071155
  H   13.22814170759140     -0.80525225029112     -2.96552546904392
  H   15.72416016588601     -0.55412101400136     -3.27849519540779
  H   16.97837956058966      0.91475058554498     -1.64850518555553
  H   15.71154290712012      2.03832365478647      0.18365948944590
  O   14.18411742749234      3.69136516905262      0.81675076148527
  N   11.90856656147220      3.28113035382391      2.45765464882882
  O   11.65820824518124      3.25365575058816     -0.63727011595772
  C   14.85622997375524      4.47913931500469      1.59926041472268
  C   11.28027407830009      2.67936378239180      3.50740241847742
  C   11.80802222077507      4.63483220259050      2.34311165044922
  O   14.81583510106684      4.61583424563316      2.82305932941118
  C   15.81434507624487      5.36035533363182      0.75576797184472
  C   10.54514759500353      3.40469356572193      4.44283760213712
  H   11.37611830691752      1.59566717663141      3.55853062017021
  C   11.09618564408732      5.41600629212917      3.24782874098763
  H   12.32969275082159      5.07306872625864      1.49792970688772
  F   15.10666749971704      6.11322816319211     -0.14118833402741
  F   16.67797951147060      4.58337343113799      0.03830147553886
  F   16.54633823561198      6.20367900469848      1.51025863330875
  C   10.44685714199800      4.79728113127771      4.32441912136161
  H   10.06274137594200      2.87110743122628      5.25875258769415
  H   11.05963682724562      6.49382519793382      3.10639137474556
  H   9.88410192665095      5.38323215437000      5.04836161453078
  C   12.35120058407095      4.12453312175793     -1.56022253355324
  H   11.64853920806685      4.53656799621514     -2.29781936619171
  H   12.88521586454872      4.92747482017351     -1.03832795041132
  H   13.08330220090849      3.49186454284633     -2.06712957740750
  H   10.93998343633099      3.75824367027495     -0.20679611846108
