49
Coordinates from ORCA-job KIPGAR-oxo_0_4_tpss_d4_lanl2dz_631gpol_Mn2.opt
  Mn  12.65268000728299      2.36449288602190      0.85730480584715
  O   11.21353101565077     -0.14511742960108      2.88309838224414
  O   11.43682923224805      0.87022318036270      0.82829469905872
  C   11.15603065363387     -0.09216886301964      1.65368891718819
  C   10.74997791499777     -1.36080108210195      0.85492030371278
  F   11.88365905200472     -1.90396024937723      0.29301909807115
  F   9.89745477973373     -1.08667473484785     -0.16242237490544
  F   10.19153857794418     -2.30456300442431      1.63650843647621
  N   13.85570686042769      1.28358686737898      2.34225374143046
  C   14.34370078494937      1.90856531203161      3.43829623590681
  C   15.14831556920132      1.25836383152321      4.37661291757037
  C   15.46640277411205     -0.08962141021839      4.18095622180518
  C   14.96227611398328     -0.73929072445078      3.04873120615956
  C   14.16361215130344     -0.01994841581214      2.16050427142285
  N   13.72290776159507      1.35442070527183     -0.57891997539683
  C   13.03403092532517      0.64645242989374     -1.50154191008706
  C   13.68111466159599     -0.03201222454337     -2.53439326221113
  C   15.07663439400003      0.03033115212957     -2.62140439663371
  C   15.77912275669239      0.77929236118091     -1.67083865984204
  C   15.06845550944168      1.43189230202725     -0.66258065001032
  H   14.07638173727935      2.95752372680196      3.54556101148918
  H   15.51441024167498      1.80848764080459      5.24034631466747
  H   16.09018540972339     -0.62361337694311      4.89569720545643
  H   15.17349257407956     -1.78811033134785      2.85396963603486
  H   13.74131062842067     -0.49092651010041      1.27734683960035
  H   11.95662324121637      0.64240482005799     -1.37597301600318
  H   13.09217764329483     -0.59298796887032     -3.25586685698351
  H   15.60571447664137     -0.48847605033093     -3.41891120204317
  H   16.86232378036002      0.86796382904103     -1.70456801672471
  H   15.55327853613569      2.05419020214345      0.08218396249008
  O   14.09827707031197      3.63515984187679      0.83087704636482
  N   11.63211289235331      3.36983463631190      2.27292792719012
  O   11.80493787274852      3.15732669035355     -0.33288431495037
  C   14.56459638782627      4.54368815284799      1.63210303272384
  C   11.28389183056645      2.83953606464737      3.46709769570521
  C   11.31410257668657      4.65431287176296      1.99143632827633
  O   14.12319857199912      4.97946574554196      2.69687605530303
  C   15.91828398927865      5.06859387470745      1.08078267156916
  C   10.61421064982199      3.59463311276489      4.43092853950154
  H   11.51326869508305      1.78519670071632      3.60352083019416
  C   10.64902314343634      5.46226661353455      2.91051780856816
  H   11.59717938942278      4.98861099704677      0.99829531149988
  F   15.79974405032534      5.55488367622721     -0.17935711539525
  F   16.82471831284870      4.03815235137206      1.03734263274479
  F   16.44055397195510      6.03539929449121      1.86055305383553
  C   10.29798188595861      4.92893920247308      4.15522189185935
  H   10.34228440249113      3.12946141527882      5.37540485965287
  H   10.41721224115265      6.49129079632188      2.64768313038919
  H   9.77894230078281      5.53912909104174      4.89249872917671
