48
Coordinates from ORCA-job KIPGAR_0_4_tpss_d4_lanl2dz_631gpol_Mn2.opt
  Mn  13.01348139012694      2.19036872192286      1.24239302712021
  O   10.23088334403857     -0.14275515518336      2.16836223059334
  O   11.37407934790709      1.10965747307125      0.63682815607617
  C   10.75558401170413      0.06210233860382      1.06446431653366
  C   10.78572782096559     -1.10735379374877      0.04252639180706
  F   12.04128732061207     -1.67515881527725      0.07171974331843
  F   10.57138873115738     -0.69700853743562     -1.23831714907388
  F   9.89569307092427     -2.08004410339169      0.31973219923179
  N   13.87287372450402      1.09533078598901      2.66815569463867
  C   14.85782106226325      1.69644382987540      3.39508491286029
  C   15.51391499644340      1.05071422089520      4.43934430992393
  C   15.15234626812494     -0.26283044527702      4.76910971426173
  C   14.14268322446832     -0.88114565882945      4.01908871122245
  C   13.53170378749518     -0.18359024550602      2.97976687336065
  N   14.14902695017540      1.30638529976602     -0.17276320766023
  C   13.56632207482671      0.80525214689591     -1.29137761828630
  C   14.31056477528967      0.22275470477300     -2.31589097795897
  C   15.70407984711488      0.15964974880254     -2.20200798584431
  C   16.30490925011593      0.68728883393490     -1.05185347328847
  C   15.50004414243412      1.24818044916974     -0.06295874830583
  H   15.10227350649636      2.71423721720399      3.09681669078493
  H   16.29426504971349      1.57757494598294      4.98406294693025
  H   15.64488212284787     -0.78990437006709      5.58344528226531
  H   13.82563277475478     -1.90007532443545      4.22832636915625
  H   12.75750271760402     -0.63833076396447      2.37309591844891
  H   12.48502325360760      0.87932511297540     -1.32180125752212
  H   13.79410737905179     -0.17042395662744     -3.18814273747301
  H   16.30812686908371     -0.28582261577604     -2.99007541646066
  H   17.38371325502666      0.66847226641976     -0.91608893663509
  H   15.92107400984375      1.68107683349036      0.83889670894190
  O   12.84159541009682      3.75780622009640     -0.03049764964111
  N   12.08791618414548      3.25102571299593      2.67965983403257
  C   13.95000514473224      4.35590164251391      0.19263869046936
  C   10.95739474827544      2.75850597233475      3.25486044390809
  C   12.56508951326455      4.44860614568985      3.11202978946074
  O   14.80826631696961      3.99694319054033      1.04389035780680
  C   14.20461842914732      5.65442362135399     -0.59385477234951
  C   10.27519672339273      3.45382219217679      4.25194255802721
  H   10.61673644413135      1.78583652552775      2.89916543867235
  C   11.93345311279083      5.18679636096026      4.11211157525438
  H   13.47587873339168      4.79699634781357      2.63420235978265
  F   13.90774685568004      6.72452790504311      0.20027545398071
  F   13.44911878418931      5.74266694529169     -1.70994366612059
  F   15.50679347100878      5.75931505860476     -0.95519611929155
  C   10.76173029276814      4.69045171123378      4.69361354854231
  H   9.37323011597666      3.01595809628114      4.67324636510496
  H   12.35982511318927      6.14003724585307      4.41628841629341
  H   10.24438852812523      5.25000796143609      5.47072468709984
