49
Coordinates from ORCA-job KIPGAR-oxo_0_2_tpss_d4_lanl2dz_631gpol_Mn2.opt
  Mn  12.66226266180020      2.39777994220722      0.83034304658264
  O   11.28140586264871     -0.17653239279073      2.92142825643328
  O   11.54393978320143      0.82465217065815      0.86210888518608
  C   11.20133139941253     -0.10883223427649      1.69291430145443
  C   10.71665761438009     -1.34815968418288      0.89286739299911
  F   11.81625161347569     -1.97353623706530      0.35358389425222
  F   9.90256427366532     -1.01691360940350     -0.14118097277442
  F   10.07512886349636     -2.24423967485605      1.66706501094900
  N   13.85678456786018      1.30616546919179      2.33386643102686
  C   14.30781629885165      1.91318634549559      3.45478150584691
  C   15.09326215172018      1.25114575157614      4.40083893611324
  C   15.43129156658799     -0.08877555545354      4.18528366062623
  C   14.96517808828486     -0.71918293586304      3.02653927817127
  C   14.18082812762249      0.00970808433174      2.13326133504889
  N   13.73516260444745      1.37463348149936     -0.60949944803266
  C   13.04338623068305      0.63252414609010     -1.50321302021069
  C   13.67984208784919     -0.07871110235690     -2.52111432715656
  C   15.07442992995358     -0.02125718786056     -2.62174317714986
  C   15.78355499119410      0.75798913579772     -1.70102507084847
  C   15.08051513495976      1.44601675290560     -0.71063763963829
  H   14.02933423357261      2.95756293349076      3.57248772138206
  H   15.42924451719850      1.78610944158387      5.28597801651483
  H   16.04083350132986     -0.63159741479261      4.90561809845582
  H   15.19173810387214     -1.76166286701711      2.81621544908579
  H   13.78090333139888     -0.44793089565457      1.23292192319447
  H   11.96755998393149      0.61811138244678     -1.36556975142854
  H   13.08453939796125     -0.66472526131000     -3.21714237618232
  H   15.59698983989284     -0.56731276522989     -3.40523505031675
  H   16.86677229061591      0.84330533427341     -1.74501251160065
  H   15.57264726032949      2.09161449626508      0.00887055040218
  O   14.17940961538071      3.59223939744279      0.84678260754045
  N   11.65545495577314      3.38183298833570      2.25760177766595
  O   11.83843564954212      3.15802580951415     -0.33074136835125
  C   14.60237486020914      4.52967097851911      1.64179819424877
  C   11.25804744400290      2.82040007050613      3.42274295135068
  C   11.36566284864751      4.68356810855505      2.02228030981407
  O   14.15630614869978      4.94684836789411      2.71092967963813
  C   15.91569837118583      5.12743961735931      1.06471428267805
  C   10.57396419339888      3.55244392777970      4.39516854185437
  H   11.47225030770228      1.75965367067620      3.53769514512691
  C   10.67938873078839      5.46836025970552      2.94503676825214
  H   11.69295440874009      5.06731387265270      1.06204969498681
  F   15.71864866491659      5.66947297965200     -0.16366239753790
  F   16.85883189032481      4.14178187983860      0.93104095017142
  F   16.43144548017621      6.07903769028127      1.86791286459582
  C   10.28115975105996      4.89888741041712      4.15956944270612
  H   10.27139502214845      3.05737381357370      5.31482737292215
  H   10.47268940675360      6.50960989402828      2.71072430166553
  H   9.74812593835080      5.49070421356826      4.90162853228557
