29
Coordinates from ORCA-job AMALCO10_3_1_tpss_d4_lanl2dz_631gpol_Co3.opt
  Co  1.62783402286526      4.66754003552716      3.40976181444708
  N   -0.24491994551890      5.30685961047163      3.31404333167648
  N   1.12544621098578      3.17586241937000      4.64619094950557
  N   3.53597098071270      4.18597344654664      3.36242155731834
  N   2.26109401557601      5.80669467191431      4.75108458428523
  N   4.12300830024664      7.17530245845722      5.26497844959533
  C   4.17281670435781      5.56818888480775      3.33807418025496
  C   5.70174947508523      5.53438565493360      3.32979030324362
  C   3.49842660867818      6.24896269478218      4.55444633442572
  H   -0.78945283848913      5.21179683181472      4.18385485130415
  H   -0.78496334545136      4.79695084417625      2.59343428610645
  H   3.80976816996268      3.64849154817430      2.52381543032271
  H   6.13045215595196      6.54632518410156      3.29792985417655
  H   6.07268569799254      4.98540935165356      2.45453719460760
  H   1.42569657780796      2.25455973558972      4.28721956946073
  H   0.11497519703093      3.06700522257872      4.81961407880456
  H   1.55244715390663      3.26884757869576      5.57930451166641
  H   1.64450913485721      6.24797141473794      5.44106162535006
  H   3.67437778776999      7.67333192503078      6.03834413156374
  H   5.12038830883229      7.35906245505956      5.15022778688968
  N   2.19847374749710      5.85127668863900      2.04290875436017
  H   -0.30758221637446      6.30326619166761      3.06023814433885
  H   3.87353740139563      3.65582258510309      4.17987535377952
  C   3.47563223741938      6.20497848428307      2.10541815968592
  H   6.08506140217400      5.03655340118301      4.22978585036994
  H   1.60301743933156      6.26794202315039      1.31883865975602
  N   4.13231576913345      6.99571630474938      1.27182899913052
  H   3.68322679911611      7.42826450663830      0.45977710276678
  H   5.13720704714669      7.15575784616259      1.35079415080712
