31
Coordinates from ORCA-job AMALCO10-OH_3_6_tpss_d4_lanl2dz_631gpol_Co3.opt
  Co  1.50738850474723      4.41318106792503      3.27310584739528
  N   -0.43503565175416      5.38810406501616      3.37041177658050
  N   0.97432863446771      3.10905138281949      4.93313278907670
  N   3.70694621987541      4.15106333127582      3.30664459010374
  N   2.27778486275954      5.82729947070615      4.69328085503604
  N   4.19226657610284      7.08975624689863      5.28425679653319
  C   4.22698536350082      5.55750527118838      3.30080130238320
  C   5.76089542431093      5.64199228396699      3.28367171442294
  C   3.53592522326338      6.21194562406992      4.52762437001202
  H   -0.95861960034743      5.21963407196687      4.23922069635033
  H   -1.02933099124898      5.02880885999749      2.61075520957116
  H   4.02775053644155      3.64409606996891      2.46955760343781
  H   6.12858111754884      6.67822020686967      3.27663321580735
  H   6.16394078436330      5.13236882090654      2.39900981746422
  H   1.59788774403819      2.29122463811562      4.97330454481150
  H   0.03200830914421      2.71751723693501      4.80055915903440
  H   0.98732754601805      3.52005954300304      5.87493452191369
  H   1.77472862428803      6.26853340869206      5.47402629195915
  H   3.74547882110803      7.57979221478076      6.06540248131783
  H   5.19037280342260      7.27501901454581      5.16719119620813
  O   1.05907013944649      3.17659819603948      2.09976674898146
  N   2.24838274415045      5.85520599328957      1.93045950067675
  H   -0.39968379989852      6.40814885984333      3.25137900036805
  H   4.08338949404415      3.64059380472843      4.11698312098406
  C   3.51721800447328      6.21750594792913      2.08170892985374
  H   6.18032225261705      5.14248611809319      4.16635457967249
  H   1.75990024857377      6.23140320159711      1.10659118130526
  N   4.17563015038357      7.06368795878342      1.29282042576884
  H   3.71875547510652      7.55366710039404      0.51591793775867
  H   5.18196865629468      7.22571097557779      1.38029284114386
  H   0.81026578275833      2.42281901407593      1.50950095406750
