35
Coordinates from ORCA-job AMALCO10-CH3OH_3_5_tpss_d4_lanl2dz_631gpol_Co3.opt
  Co  1.87045408928506      4.57074206987887      3.36822997820045
  N   -0.21285324894425      5.15944154477442      3.38459588476474
  N   1.62712454387664      2.90306341690400      4.73661835264715
  N   4.10611883917005      4.43515571747375      3.56872499884084
  N   2.35353484131679      5.92055372602022      4.80105997186515
  N   4.02289630171314      7.46314742473149      5.45034315667243
  C   4.41574812915277      5.90587646420548      3.53024096269864
  C   5.91858368201834      6.20773145212734      3.64288079621176
  C   3.54671099007517      6.48606971519536      4.68369742384009
  H   -0.73387353143206      4.93006748594911      4.24167012131295
  H   -0.74541421434915      4.73710005197823      2.61276985452794
  H   4.60486557622651      3.95081711087863      2.81056647391740
  H   6.13950095744300      7.28456496888426      3.62048597111372
  H   6.46642661579413      5.73705133576985      2.81710875711368
  H   2.14014876685527      2.06630312574549      4.42924661819753
  H   0.65512596755434      2.59358738376503      4.86702213329422
  H   1.97336011308279      3.11342401748113      5.68153239136934
  H   1.76436376251914      6.26357895350479      5.56823779934263
  H   3.47356621471752      7.87488739534831      6.20899197498937
  H   4.97394252216141      7.82018674254290      5.35718095108647
  O   1.48527361506680      3.19879231852841      1.83678141271921
  N   2.60243841006278      5.78561598139129      1.92505127443818
  H   -0.31253230675638      6.17624891805814      3.26594538925264
  H   4.45445126736188      4.03019542055056      4.44741393395368
  C   3.75385469043048      6.38371648513047      2.20507459129434
  H   6.32097325636711      5.80440740749544      4.58055040268741
  H   2.15529125998974      6.05591658897312      1.04131695641340
  N   4.34432481074959      7.31651692065728      1.46507284354474
  H   3.93020849485511      7.66439127840275      0.59644070562773
  H   5.25482175215976      7.71067232886317      1.70268216148998
  C   0.55443598196778      2.05914806097982      1.66692073614916
  H   1.12883996878383      1.12632495388800      1.66558097811877
  H   -0.13668494544597      2.09677184066633      2.50960305101072
  H   0.01999811507803      2.18388716189976      0.71924767879289
  H   2.06256471109264      3.24541423135647      1.04393331250040
