29
Coordinates from ORCA-job AMALCO10_3_3_tpss_d4_lanl2dz_631gpol_Co3.opt
  Co  1.59558961940539      4.76877942021390      3.66048464425416
  N   -0.27713429604252      5.40266543959295      3.62610690165550
  N   1.02673714142728      2.86011411682903      4.13601632602101
  N   3.50921783406548      4.28149431408438      3.64625251825937
  N   2.33375555056236      6.11142246226088      4.89631921345383
  N   4.29880985514933      7.40454564519638      5.19177647627243
  C   4.16450685051801      5.63488556073284      3.41913549906305
  C   5.69257934801069      5.54704858215750      3.35225489050607
  C   3.57856203464713      6.46086259586466      4.60087324013268
  H   -0.79425708972990      5.21664069351668      4.49978911825038
  H   -0.83967809945138      4.98967519519197      2.86523736473249
  H   3.75882650257522      3.62904886548054      2.88630638713156
  H   6.14682367572233      6.53456138785819      3.18587333398220
  H   6.01034262511424      4.89367692628931      2.53004711577055
  H   1.76477991611828      2.14351290951511      4.08451578672218
  H   0.27169119616676      2.51106503235109      3.52489207264131
  H   0.65855077100881      2.80465704784826      5.09935547375972
  H   1.84908839200405      6.62519486411706      5.64051655267253
  H   3.93541384735215      7.95477260199113      5.97493123358593
  H   5.26711445438363      7.60000998697311      4.93612705579171
  N   2.18970306044079      5.69490259494009      2.05834594474958
  H   -0.31142673854957      6.42316352660620      3.48629719610797
  H   3.83617870438738      3.86910499618809      4.53386001115975
  C   3.45298413032467      6.10048982941282      2.11827394303346
  H   6.10193563350090      5.14780422233772      4.28865700785745
  H   1.62620502982461      5.96431746405846      1.24439156013243
  N   4.09060439318590      6.83000525200036      1.21491854217168
  H   3.64062795215899      7.14229283470913      0.34975066438822
  H   5.07506770571879      7.08238563168178      1.30829392574052
