31
Coordinates from ORCA-job AMALCO10-OH_3_4_tpss_d4_lanl2dz_631gpol_Co3.opt
  Co  1.55907579300833      4.57031949674352      3.29307937022997
  N   -0.45440208394514      5.48633057057833      3.51984342394739
  N   1.09365379099922      3.07225975213383      4.61573323651968
  N   3.80031814155640      4.13750766821120      3.37127673618694
  N   2.23737561857785      5.74276612503256      4.67868714112919
  N   4.07207401082126      7.07825531998780      5.33330309132482
  C   4.23955517745976      5.57211782921874      3.33752394944017
  C   5.76375936201829      5.75704379887925      3.36614953272683
  C   3.47701465304702      6.19301418385848      4.54459870140390
  H   -0.94995057742570      5.34916130031145      4.41097610580559
  H   -1.07992691301864      5.13003606855127      2.78436754700846
  H   4.14191491218466      3.61886631828571      2.55003405538679
  H   6.05931171749378      6.81536791932966      3.32153928068116
  H   6.22938272104687      5.23434703128609      2.52072706155417
  H   1.57188176296997      2.18890595353070      4.38511428804332
  H   0.08849843489328      2.85240210166500      4.66726490157213
  H   1.38511866719314      3.31342273999288      5.57266687569156
  H   1.66378275897280      6.12555167546941      5.43715576125649
  H   3.60324153453628      7.49772674041050      6.14083234625157
  H   5.04576341708816      7.35539112918879      5.20285899728437
  O   1.06233113737706      3.54726329098127      1.93789108819529
  N   2.26206531785118      5.74567259891604      1.95756073604476
  H   -0.39665023941653      6.50291874961658      3.37546195675749
  H   4.17080396153564      3.66385026925723      4.20582323818976
  C   3.53678579807207      6.10707090871038      2.05565258070479
  H   6.18375850251129      5.32488727785987      4.28321268838345
  H   1.74745661744161      5.92733628845695      1.08623629275604
  N   4.19920182264375      6.81241590320735      1.14985045015836
  H   3.75980850539388      7.14558443264457      0.28502535203429
  H   5.18879487518537      7.04701634727493      1.25757555762729
  H   0.48103080192697      2.76819021040948      2.12727765570381
