52
Coordinates from ORCA-job CEFPUY10-OH_1_1_tpss_d4_lanl2dz_631gpol_Mn2.opt
  Mn  7.02670750025651      7.01476851135016      6.11391528403604
  Br  6.18717884240925      6.14131562988572      8.28458345236063
  P   7.04899702068057      4.82296598905909      5.25463982995462
  C   5.45672634323863      4.56165881908304      4.31614127550400
  C   7.09274121013490      3.37793079816247      6.39151055874288
  C   8.33984753005384      4.41386117739466      4.00037725834103
  O   7.58310714417498      7.70001439591695      4.53178242608018
  P   6.96141084675585      9.19915385855538      6.98484820164800
  P   4.80428849103990      7.04453109726631      5.36400138506761
  P   9.17428992306036      6.94107782732227      7.04591620023157
  C   4.30693383010879      5.27871039036375      5.05028674769317
  C   8.67046566481978      9.60355356210705      7.62476966922526
  C   6.63343202134199     10.52334301832003      5.75172573385377
  C   5.88612151635802      9.63203260589264      8.41234949326266
  C   3.40734408759180      7.71401923924170      6.35435456453343
  C   4.61529360639750      7.84862727640297      3.71941564949818
  C   9.29510816755247      8.34498269921443      8.26006426433045
  C   10.53502210505113      7.31169045901444      5.85034517324160
  C   9.81584516042669      5.48718665036121      7.96920549379330
  H   8.61965645668000     10.43055991175072      8.34642133684934
  H   9.27758135293402      9.94791234808910      6.77513162990328
  H   5.55988223276165     10.56925741042776      5.52829110146277
  H   6.95231235356679     11.50582003084012      6.12455424978700
  H   7.17073767022933     10.28219693889449      4.82700592473732
  H   6.13987130405135      8.99983561073647      9.27071300864614
  H   6.01664696514611     10.68919856821784      8.68019526419358
  H   4.83421755385206      9.45091587536812      8.16621289799439
  H   3.45698247308887      8.80961653234058      6.38764244388770
  H   2.44592209668669      7.42566236247145      5.90857818976011
  H   3.46469337411481      7.32353212724460      7.37754157942418
  H   5.38795446385724      7.47323452741294      3.03964971748732
  H   3.61890233921303      7.66525147185959      3.29598851189059
  H   4.76785273344056      8.92968422548003      3.81971040029645
  H   10.33938658676543      8.51680043568326      8.55700116395169
  H   8.73286034257662      8.04578177650513      9.15632224824212
  H   4.12387730722599      4.81432914282551      6.03018494149050
  H   3.37178177948085      5.23261880113551      4.47452822005405
  H   9.32897796248933      4.35944987242476      4.47322587086396
  H   8.13231422793409      3.44569746994513      3.52533817672456
  H   8.36308911429855      5.18513840060229      3.21963198751362
  H   5.25453894515691      3.48751548072369      4.20175875129771
  H   5.58647191771275      4.98206913212046      3.30832442010246
  H   6.22746564738744      3.41700306719070      7.06259310613922
  H   7.07450997259044      2.44098491499563      5.81860523640751
  H   7.99458180730460      3.40342328670701      7.01294325351594
  H   10.01427320415013      4.65832957537716      7.27776285526088
  H   10.74993080412572      5.73777646020650      8.48947680636234
  H   9.06567380566866      5.16567132869145      8.70151900275832
  H   10.32195945434411      8.23996341708225      5.30500356269041
  H   11.49805970938306      7.42177454197228      6.36622873047409
  H   10.62963861287258      6.49587353430029      5.12089596176128
  H   8.43981441745544      7.33894741546112      4.22232678666912
