56
Coordinates from ORCA-job CEFPUY10-CH3OH_1_6_tpss_d4_lanl2dz_631gpol_Mn2.opt
  Mn  6.98254568130514      7.05336606282435      6.17332515492687
  Br  6.06008289260084      6.06353606578637      8.36746717314163
  P   7.01768485167309      4.66065366600733      5.04174020718718
  C   5.31045561754267      4.44705976226258      4.31070306541604
  C   7.14244807347673      3.22913192404307      6.19918900028606
  C   8.09359638521363      4.13444091771193      3.62856196285376
  O   7.49239216218613      7.84798321576073      4.09110821942527
  P   7.03048824194050      9.50184003217983      7.25334220380524
  P   4.47058572271031      6.95592006953317      5.30523163314401
  P   9.36097980297891      7.01381707481337      7.37492578181558
  C   4.21404192957999      5.11421462697942      5.17188605149965
  C   8.62477271736699      9.60347295522663      8.22677425594148
  C   7.03105351774754     11.13902605581747      6.37816986958169
  C   5.73694831278004      9.75363168849035      8.54496399744589
  C   3.09907422461227      7.47590974541718      6.42402410149312
  C   3.88784726979641      7.54948294145212      3.64449282465004
  C   9.08266469861064      8.22783495264182      8.76246754514098
  C   11.01809841258850      7.54689081275164      6.72524505481596
  C   9.78428128014302      5.45659509686550      8.27000622044163
  H   8.50046409113446     10.31549546543931      9.05561230548834
  H   9.39084251778041     10.02668046886789      7.55871781389059
  H   6.07207850902355     11.29106894369446      5.86529506686541
  H   7.18085851588459     11.96850694723275      7.08287804635745
  H   7.83233063206145     11.17118746210952      5.62764291711024
  H   5.73051010542042      8.89115740219755      9.22143781266682
  H   5.91864723314347     10.67650236107615      9.11260333762717
  H   4.74833806461916      9.81430785754998      8.07245700739000
  H   3.02739973079241      8.57118476540978      6.44609630064126
  H   2.13524442175431      7.06861672461357      6.08996220760583
  H   3.31731828966909      7.11938483458811      7.43786291673357
  H   4.58123400969675      7.22155077491868      2.85892907353871
  H   2.88342810539410      7.17072695075705      3.41057352948283
  H   3.85371275645056      8.64743549905990      3.63063272838787
  H   10.00360864753263      8.33535835183142      9.35424295621418
  H   8.31267206381881      7.79224569578643      9.41428673046941
  H   4.23185611812274      4.71608743080562      6.19647052917756
  H   3.21833314248043      4.90949187570668      4.75127683781470
  H   9.13934330533069      4.06856561316348      3.95660205189643
  H   7.78955198139431      3.15341004172549      3.23862023378869
  H   8.03233512444936      4.87214203252943      2.81818369694376
  H   5.09973265756530      3.37475861006993      4.18612095762125
  H   5.32661692823347      4.88747698316248      3.30234431236542
  H   6.43959103644711      3.37297846416683      7.02823072151644
  H   6.92736157750869      2.28203068035555      5.68568892836635
  H   8.15239256204605      3.18149077695379      6.62555137521173
  H   10.13004057601690      4.69806787271003      7.55563198139119
  H   10.57654643973784      5.62805886727711      9.01113892064318
  H   8.88459338182401      5.08252172514009      8.77291638719383
  H   10.96098147247997      8.55328403680391      6.29097092816796
  H   11.77146116041366      7.55374846218482      7.52496168257219
  H   11.35311712775402      6.85791865777430      5.93871787503005
  C   8.87829791719489      8.10591894165121      3.74266228638636
  H   9.28854241153852      8.92562019186316      4.34642199006658
  H   9.41326675500031      7.18059938712500      3.96794787810712
  H   8.96219690005520      8.33646382577811      2.67446436575358
  H   6.96318193537561      8.64924735135418      3.90131098650275
