52
Coordinates from ORCA-job CEFPUY10-OH_1_5_tpss_d4_lanl2dz_631gpol_Mn2.opt
  Mn  7.03145021742084      7.05413869073555      6.00143576010048
  Br  6.19326893362893      6.15966688937696      8.19285462162990
  P   6.95754224124936      4.77841458681416      5.06788494205931
  C   5.33300850229561      4.62229826331223      4.17851082523836
  C   7.02524239306912      3.32985593843437      6.19279406622348
  C   8.21995188357145      4.43562200567600      3.77456603739789
  O   7.62054382865811      7.72232623737324      4.40023331411802
  P   7.10709559609315      9.30399548433917      6.97968413936055
  P   4.49081276285336      7.10137620828609      5.23289170382274
  P   9.50499134955601      6.86686820479720      7.16962863562107
  C   4.18165939329557      5.27777121421241      4.97472705693640
  C   8.82142535411834      9.56553879791831      7.64903473628066
  C   6.86602737516925     10.62683951031898      5.73019517422727
  C   5.99240170825145      9.73427142549440      8.37345406667459
  C   3.05198548047512      7.59673013296706      6.27770087075054
  C   4.10225657148373      7.82056846252953      3.57472269084488
  C   9.34399105118595      8.29627436566183      8.36154318250712
  C   11.11870279675511      7.25716036692655      6.33548742142047
  C   9.96064770079517      5.47163314566156      8.29086866354570
  H   8.81492602138028     10.42460785310706      8.33565769024319
  H   9.47090271695663      9.83405218327374      6.80272728863180
  H   5.80758659649858     10.66929074315572      5.44287614076689
  H   7.16787937908242     11.60985450607910      6.11516428227528
  H   7.44940519475335     10.37408200246352      4.83709633783103
  H   6.18049921220478      9.05840218033259      9.21543431236734
  H   6.14590702167206     10.77521451552313      8.68861744262563
  H   4.94827062550132      9.59951564010036      8.06641317225000
  H   3.00996699601468      8.69073639327020      6.36023930787481
  H   2.10274544245095      7.24321107841482      5.85292758075816
  H   3.17895047942619      7.17795204705938      7.28377740365636
  H   4.89550095026324      7.55280254274809      2.86583103694249
  H   3.13174064020214      7.47984506793304      3.18885537498130
  H   4.08766421786515      8.91590437674624      3.64754784712605
  H   10.31322083193954      8.49822056076649      8.83995571215430
  H   8.64330419477339      7.98267310434442      9.14872156241376
  H   4.09515569904938      4.82120569010236      5.97141379825871
  H   3.22512549458515      5.12510083940659      4.45444362108697
  H   9.21727323397226      4.38505785955298      4.23041207301266
  H   8.02049647144674      3.48533624924136      3.26173912545931
  H   8.21026201829036      5.25104110649517      3.04103993919900
  H   5.12426769541372      3.55866797599027      3.99192577528098
  H   5.44904226892537      5.10676792808218      3.19821956154588
  H   6.20265316345564      3.38950489049379      6.91433663472364
  H   6.95908490979526      2.39110074765252      5.62632130076056
  H   7.96442288445728      3.34521178203262      6.75906135690338
  H   10.28495559054722      4.60631843396471      7.69782255335766
  H   10.77576895658331      5.75291125617368      8.97154925957086
  H   9.08008464743124      5.18245594418309      8.87755326893923
  H   11.02644872277375      8.17219175364082      5.73526571657324
  H   11.92791649718231      7.39678205079463      7.06537591193524
  H   11.39824761410563      6.43926634210523      5.65822450552258
  H   8.57059847107404      7.53661442393345      4.24677519621151
