63
Coordinates from ORCA-job AGODEG-CH3OH_1_1_tpss_d4_lanl2dz_631gpol_Co3.opt
  O   4.05162621773452      7.21201461221478     12.13260613575697
  C   2.26428038567662      5.69956329165347     10.60318469809711
  C   2.17915007505408      5.05932603238467     11.83868359495596
  H   2.92737319775677      5.20517718001438     12.62156554084800
  C   1.14838784036604      4.12085697544472     12.12353119949156
  H   1.11429593886856      3.65518590346935     13.10769604475209
  C   0.20576977926466      3.79346211281776     11.16867854745463
  H   -0.58597149341765      3.07984408495176     11.39217593329798
  C   0.27381232712576      4.36939068327589      9.86837457162695
  C   -0.65060426822349      4.04938740204264      8.83618069770109
  H   -1.44653410983227      3.33578876171424      9.04356596084905
  C   -0.54163147630570      4.63768523211760      7.58630200353220
  H   -1.25508625073229      4.38565789457121      6.80360256768049
  C   0.48830413120818      5.56683415202821      7.30256612036430
  H   0.56362198577177      6.01376605093025      6.31302676965406
  C   1.40878875226892      5.89247397817835      8.29412796429626
  C   1.32119213807589      5.31884356787151      9.59563956603016
  C   5.38203519396225      5.02032441783131      8.13143567801208
  H   4.46912118718960      4.53821051380648      7.76264454050412
  H   5.63063984324917      5.83006044379709      7.44034855607163
  H   6.20167037276446      4.28845885650966      8.15073704671450
  C   4.89139132640699      4.02724222513151     10.72805895250195
  H   5.78318046650187      3.41734690850795     10.52705332894516
  H   3.99917228545359      3.49313879331916     10.38668154914764
  H   4.80907913870061      4.18719686375244     11.80836830723300
  C   6.73700083024604      6.13358479877859     10.47440302169592
  H   7.48122653332723      5.35477817966202     10.25844640594259
  H   7.08563513275828      7.07576874154719     10.03842664594646
  H   6.67364924405474      6.25570924435545     11.56296907723927
  C   5.83407000295222     10.02618189125466     10.30584698609764
  H   5.29388144505656     10.52412178045229     11.11973802501021
  H   6.63640042082572      9.41667266540188     10.73865225905336
  H   6.29047660067421     10.79745709863452      9.67079229610248
  C   5.79428823475318      8.55338489358847      7.86376993243624
  H   6.25997089449325      9.46560430037496      7.46676143100072
  H   6.58761198490064      7.85950140377580      8.15990375787987
  H   5.19893320042361      8.08747097365393      7.06858925378823
  C   3.69952711846726     10.30673310637935      8.43238493315562
  H   3.09489052430829      9.84204815758253      7.64437910706009
  H   3.03406477656772     10.83775380948821      9.12030378785134
  H   4.37956709163300     11.03883517663728      7.97591541329833
  C   0.47363514751684      8.98354162869958      9.29855142857969
  H   0.07632765873313      8.08082302785118      8.82059497175248
  H   -0.35624084050621      9.57490887136577      9.70965637755559
  H   1.00053695474982      9.56664703759511      8.53828313536540
  C   1.90383818165778     10.08578503753784     11.57760716386921
  H   2.15228654134309      9.86488507891134     12.62351554024332
  H   2.71905900413980     10.67566695290065     11.14636723561459
  H   0.99209959461279     10.69898586769293     11.57540840316953
  C   0.38799232129188      7.74308333159556     11.84993519772431
  H   -0.38330141659445      8.48827207185474     12.08912117303938
  H   0.87950782921893      7.43687095281190     12.78192915011214
  H   -0.08325538686444      6.85697956360542     11.41192273428866
  Co  3.45442479053158      7.21149532402102     10.16220655959726
  P   5.06928169691807      5.63129328274891      9.83677855079383
  P   4.68537097658282      8.98820886508323      9.28187895952330
  P   1.59685328035176      8.48962576455040     10.66764051818299
  S   2.76632624639589      7.00021792116664      8.02402081339470
  C   4.72062869839243      8.24837689610119     12.89460441784740
  H   5.73950526730497      8.29937119736275     12.51104563224616
  H   4.22134201991793      9.21358536275662     12.76985180762372
  H   4.73669239731155      7.95496837558399     13.94992412070448
  H   3.22758001666299      6.93250442829926     12.58853789969393
