58
Coordinates from ORCA-job AGODEG-oxo_1_1_tpss_d4_lanl2dz_631gpol_Co3.opt
  O   3.94372225862567      7.44936596986715     11.79633292627389
  C   2.15237464739642      5.82095329073478     10.63613167358855
  C   2.04554909690960      5.30830071993272     11.93316206604404
  H   2.64631291837916      5.74589962160610     12.72916988262745
  C   1.17195452874126      4.23410064958621     12.21573483837651
  H   1.10710719574246      3.85302365685966     13.23387160578475
  C   0.39783825315744      3.65864892929355     11.21369721930738
  H   -0.27221034063204      2.83012838957222     11.43783068231768
  C   0.47512778905294      4.15009691008134      9.88323653526988
  C   -0.28676847521988      3.61114060843359      8.80898221408458
  H   -0.96366581479385      2.78125625757367      9.00703716960044
  C   -0.17815036119231      4.12893029382319      7.51694337369439
  H   -0.77126164400187      3.69926215621711      6.71236601775849
  C   0.68751997890427      5.20080139700305      7.23866381957113
  H   0.76638418360826      5.60059174184372      6.22998331460293
  C   1.45633899948850      5.75751478203610      8.27790377367996
  C   1.36459094352032      5.24364842185230      9.60867103064449
  C   5.29072753350886      4.99941370960067      8.27476569144647
  H   4.37680111375127      4.51250891769093      7.91117156861486
  H   5.55383862266355      5.78966908510423      7.56418034725763
  H   6.10062085955095      4.25795187679236      8.30924748497748
  C   4.70473744051231      4.15035607010806     10.93309728291826
  H   5.59761215969529      3.51774410988672     10.83342784160030
  H   3.82837634768987      3.59760905167966     10.57953027428503
  H   4.56148557327550      4.40311244328591     11.98884820875915
  C   6.58108675988136      6.23487431119364     10.62994151124486
  H   7.26514584245038      5.38112679678092     10.72296607313338
  H   7.06163690781705      6.99605449175462     10.00726342568033
  H   6.38599802663844      6.65679165031937     11.62339404231650
  C   5.72054329227881      9.83731438818089     10.56156779411816
  H   5.10684724031301     10.25583260693895     11.36630378386581
  H   6.40071503207402      9.10585618331643     11.01037414790846
  H   6.30466208034168     10.64043834930063     10.09261526899515
  C   5.78732319765876      8.58171249259168      7.94099024039452
  H   6.32683161903036      9.47992962580169      7.61082347818499
  H   6.52092437437795      7.82688109178166      8.23919208399640
  H   5.20593407230504      8.18895515935228      7.09687234656473
  C   3.75579834572956     10.41928436571658      8.50887807010367
  H   3.15551263705153     10.03721530869680      7.67326296876982
  H   3.09379602643814     10.94740268682652      9.20174777632607
  H   4.48899159034263     11.13735916925168      8.11670840437537
  C   0.48182019626676      9.35081087663511      9.62125597882397
  H   -0.04384550290021      8.51901874416732      9.13521018800956
  H   -0.25686713918903     10.01376499233240     10.09204494051931
  H   1.02322660960952      9.90367752203212      8.84716578114029
  C   2.26336665263542     10.09056303488710     11.85600974746904
  H   2.97536250366938      9.69149726056403     12.58895114641757
  H   2.77308351773402     10.83043952734342     11.23019433579633
  H   1.43897572765589     10.59079102576460     12.38121059581936
  C   0.45527635231765      7.93347122928718     12.09235094634417
  H   -0.23857022146736      8.72063824290104     12.41836716828790
  H   0.99909894574996      7.55272890819845     12.96318465014035
  H   -0.11278640056368      7.11229783710998     11.64352236209307
  Co  3.33726240123966      7.29387851991972     10.16928858615992
  P   4.95923788549317      5.68408100745540      9.95159353224513
  P   4.63954271243251      9.01418936215277      9.32310440779949
  P   1.63322111132025      8.66088483371171     10.88165358459454
  S   2.55618379493329      7.08750933726783      8.03980378927533
