50
Coordinates from ORCA-job ALITEV-OH_1_3_tpss_d4_lanl2dz_631gpol_Co2.opt
  Co  7.64589432828344      2.21947437027555      2.94603565042926
  N   8.29274113056295      2.25838782263350      1.07127844211467
  N   6.41044278763695      3.88626871436362      2.07731222641448
  Cl  9.57946862110870      1.03091341295441      3.75851368865055
  S   6.35487469788013      5.69171234077335      0.18931890828847
  C   9.16119443061627      1.34336673707823      0.58941185681699
  H   9.49523505245939      0.59979319425879      1.31077801683727
  C   9.62509387165655      1.39404806634368     -0.72896147202319
  H   10.32884694645534      0.64197805658035     -1.07504079828674
  C   9.17695690541319      2.41875648787406     -1.57096485219056
  H   9.52313925828835      2.48346584324632     -2.59997192966325
  C   8.26820828445915      3.35776858468169     -1.07538510475961
  H   7.88817611558514      4.15741007410425     -1.70762957931632
  C   7.83499511883533      3.25155635774461      0.25256729468733
  C   6.89216299519126      4.16765655093379      0.88276656365007
  C   5.39256264894903      5.96138606402883      1.63494009399830
  C   4.56009687857702      7.04505738297318      1.94539891008530
  H   4.43585464551583      7.87907692281954      1.25943899366734
  C   3.88631894438041      7.01539155830942      3.16791554191689
  H   3.23289863593908      7.84348164686235      3.43337833332929
  C   4.02397529743562      5.92646740437573      4.05754188892675
  H   3.46718595403244      5.92958146573212      4.99196385945816
  C   4.84702323565118      4.84665990486376      3.75208745364310
  H   4.93625843172650      3.99139473530798      4.41431316541354
  C   5.55085246810096      4.86651356273020      2.53286517323908
  N   6.90745591044383      2.20618882429932      4.75829522002253
  N   8.61426576005565      3.84771497673347      3.67687934234234
  O   6.50797774141428      0.91902505808970      2.53701097286278
  S   8.83050209067767      5.63816685941614      5.55882423502371
  C   6.11380018356133      1.23475391069582      5.23763857231300
  H   5.87112428493866      0.44689616776802      4.53001805817598
  C   5.64471658513357      1.26486161909756      6.55500145132064
  H   5.00667686219918      0.46173217350694      6.91333548956557
  C   6.01353019322399      2.32809393095126      7.38888400529205
  H   5.66497460484930      2.37070855320229      8.41807763756946
  C   6.84902939694283      3.33089382374034      6.88921750296734
  H   7.16879904228848      4.16016360522745      7.51618778576558
  C   7.28803194955684      3.23855822213216      5.56324691501207
  C   8.18961864515094      4.15701018141831      4.89687988811834
  C   9.76591556909004      5.85043518989007      4.08666083573330
  C   10.65399543683272      6.88656856909490      3.76999050503112
  H   10.82319093143130      7.71324652156690      4.45527061700554
  C   11.32941340045969      6.81285103634389      2.55130751636382
  H   12.02914001515949      7.60061853280475      2.28164412515721
  C   11.14154486911658      5.71853682210525      1.67971747412608
  H   11.71317152907740      5.66970864019951      0.75562363409385
  C   10.25740152734643      4.68920203426891      1.98952702693323
  H   10.15447067171726      3.82434429067955      1.34629586471452
  C   9.53776841126015      4.76447931135769      3.19626966108748
  H   6.56145670333181      0.70086388356027      1.58118333807517
