50
Coordinates from ORCA-job ALITEV-OH_1_5_tpss_d4_lanl2dz_631gpol_Co2.opt
  Co  7.57133709130787      1.92991287157676      2.87805865099404
  N   8.46530085581191      2.12256624080426      0.93519868300231
  N   6.51550607744133      3.71062761241494      1.96729655742218
  Cl  9.26541594433511      0.59269543557504      3.67686186618601
  S   7.08189466223138      5.84229564482948      0.56873069099038
  C   9.28583132884159      1.20954922187915      0.38752296467834
  H   9.54868933388966      0.37379811639749      1.03233023084079
  C   9.78588391930409      1.34922876299127     -0.91317452121248
  H   10.44938660528001      0.59067554292884     -1.31979565893190
  C   9.41991348003880      2.47319392235957     -1.66277184574633
  H   9.79089469577828      2.60814932306147     -2.67629654881130
  C   8.55998764757287      3.42110040819651     -1.09751788233634
  H   8.23870060381805      4.29527383672187     -1.66008420785141
  C   8.09708954587740      3.21010236355556      0.20692406321100
  C   7.20427578611004      4.12752369827611      0.91712725490031
  C   6.00290406715485      6.01105051173702      1.94439062469704
  C   5.39028621365485      7.16641895011359      2.44869217772563
  H   5.54315189929655      8.13707614006080      1.98376108353251
  C   4.56645651247245      7.02915365781378      3.56818584621764
  H   4.08068893080313      7.91081940547691      3.98043897302706
  C   4.33376389571871      5.76764002841380      4.15875541189321
  H   3.66426789951298      5.69413912146193      5.01288649447349
  C   4.93905447373782      4.61789067137692      3.65944528022050
  H   4.75505101761080      3.64013567684315      4.09561532040973
  C   5.80230192568704      4.74272758923592      2.55518656857493
  N   6.81358073071720      2.09165385471515      4.86797656328439
  N   8.59046223127094      3.72863288348845      3.72758794351639
  O   6.19556583065421      0.87658616592839      2.33307485992696
  S   8.13812556217997      5.85148039453903      5.17910561253117
  C   6.09774355043260      1.12088263006130      5.45969606009303
  H   5.89996602983043      0.24536683670238      4.84670020916776
  C   5.63592585537826      1.24313626924110      6.77520262375091
  H   5.06082661323377      0.43737852087098      7.22352542880583
  C   5.93157430124956      2.41057541013805      7.49040757776920
  H   5.59053275640384      2.53177119977335      8.51603967475482
  C   6.68758857189303      3.41561674402384      6.87886452902339
  H   6.96042541842946      4.32081628445874      7.41726473108941
  C   7.11976896154004      3.21606932258112      5.56174434914616
  C   7.95359043878299      4.14871498784735      4.80815956707219
  C   9.18600622210649      6.00636559634129      3.77772677020117
  C   9.83147598645633      7.14841315215408      3.28522066244979
  H   9.70867497221911      8.11752243559447      3.76229472110546
  C   10.65794361498017      6.99726392111316      2.16944934949688
  H   11.17196873352374      7.86783682245413      1.76791111153240
  C   10.87024867206615      5.73109978678556      1.58168855326145
  H   11.56117671818838      5.64040088009841      0.74644827255376
  C   10.22745781830225      4.59543062622853      2.06587029043285
  H   10.41587162462016      3.61078922744009      1.65109825736035
  C   9.34239518758553      4.73927268522613      3.15052116544193
  H   5.44149918466730      1.37636860809253      1.95151303812487
