50
Coordinates from ORCA-job ALITEV-OH_1_1_tpss_d4_lanl2dz_631gpol_Co2.opt
  Co  7.62417902896302      2.42009503637317      2.89492243589734
  N   8.33599570080239      2.36139435607419      1.10056297993076
  N   6.45682287775466      3.81173344826090      2.12746311796639
  Cl  9.18249510247408      1.01025107494433      3.73037038579357
  S   6.20159349004100      5.65640217785130      0.29908455028210
  C   9.16777133032604      1.42066774762919      0.61489879969353
  H   9.45126258644570      0.64258007039046      1.31799747112062
  C   9.64050954591721      1.48176435266936     -0.70141854161376
  H   10.31713909871150      0.70943393804126     -1.05700444988714
  C   9.23533925585614      2.53233575670481     -1.53375630293436
  H   9.59690454311646      2.60053705120775     -2.55709351174576
  C   8.33612283275294      3.48272395063392     -1.04079541178001
  H   7.97092841383750      4.29266401816733     -1.66835485439094
  C   7.89336198883030      3.35855228802553      0.28076393751798
  C   6.90242152471539      4.19396297089024      0.93129205494513
  C   5.20561524122297      5.76310167244567      1.74280149654276
  C   4.25044856074749      6.73994092373247      2.05272156857397
  H   4.05857572116575      7.57253760765134      1.38067691856409
  C   3.54539344989837      6.60198428305188      3.24839411726711
  H   2.79640525499067      7.34411015773362      3.51492290185178
  C   3.77471528268987      5.50221563812844      4.10241720891260
  H   3.18872906088295      5.40363078301450      5.01341756922425
  C   4.72359323015530      4.53012122789286      3.79832922841566
  H   4.86380031014195      3.67127431378521      4.44177783104336
  C   5.46984800483144      4.66679339311060      2.61182713596359
  N   6.89739638637250      2.42868212172863      4.67176928649590
  N   8.72607114874664      3.93704413044016      3.62582720561270
  O   6.53002830893811      1.00191933905499      2.44771789106010
  S   9.07154823547322      5.69106421987686      5.52495427314202
  C   6.05717744955285      1.48494657002795      5.12930427279738
  H   5.80649425919857      0.72505548033397      4.39119584280408
  C   5.56747240450064      1.53791229677702      6.43848053009601
  H   4.88972707153539      0.76303551267054      6.78651973709821
  C   5.96509371707105      2.58639551605087      7.27938140885224
  H   5.59442855603176      2.64712294170266      8.30002687119496
  C   6.86357073214727      3.54556303080097      6.80227690455922
  H   7.21266480955475      4.35566487180384      7.43853317663326
  C   7.32633617254054      3.43063701281344      5.48649781245834
  C   8.30983367934005      4.27920460685033      4.83935870271191
  C   10.04890513464857      5.82552152208606      4.07120125212106
  C   11.03516523736265      6.77706720508079      3.77992198619438
  H   11.26907484839203      7.57769684796441      4.47701026587586
  C   11.71973602075479      6.65317429668576      2.57055542010193
  H   12.49439426296027      7.37449700537442      2.32050189228332
  C   11.44079362047075      5.59244133359044      1.68192508157272
  H   12.01639348479936      5.50227534067764      0.76336982042033
  C   10.45951057873711      4.64737978211430      1.96608563661580
  H   10.28255307341138      3.80923424700544      1.30412637894371
  C   9.73401842495632      4.77244898456015      3.16619237442725
  H   5.94007094523204      1.32639754551785      1.73390733877257
