54
Coordinates from ORCA-job ALITEV-CH3OH_1_4_tpss_d4_lanl2dz_631gpol_Co2.opt
  Co  7.87540001124049      2.35732763693461      3.08526262037258
  N   8.57247162549293      2.23995553454706      1.05023833357610
  N   6.68205611905801      3.86999354271488      2.02795042730893
  Cl  9.35389028299526      0.72215905186296      3.86063399796663
  S   6.54748520242067      5.55287145112470      0.03248204218878
  C   9.46530188844622      1.33811008317705      0.59810811966145
  H   9.87209654983626      0.67625771249872      1.36138577571178
  C   9.84803886626809      1.27785406031623     -0.74786755211143
  H   10.57788622549861      0.53833889217179     -1.06703444192857
  C   9.28381256505315      2.18078916926234     -1.65665760349289
  H   9.55942838859525      2.15643324364244     -2.70859020526868
  C   8.35596796788933      3.11973920674821     -1.19425249622202
  H   7.89105958596052      3.83026823429145     -1.87523329106064
  C   8.02479565241502      3.12077265646483      0.16737515562669
  C   7.09783308624733      4.06635421611693      0.78626808110277
  C   5.67980319279670      5.94137837140598      1.51024363366445
  C   4.89528965938178      7.06636831785138      1.79854833114640
  H   4.74387452355732      7.85425423861079      1.06511511686560
  C   4.31159843813178      7.14279657252919      3.06455780660876
  H   3.69953446646051      8.00633236200759      3.31535554849573
  C   4.49375945344724      6.11846167316180      4.01957423943114
  H   4.01527578480668      6.20653227851962      4.99248437896372
  C   5.26756789614222      4.99699776662733      3.73418858667865
  H   5.40055979528967      4.19495077846337      4.45328290781342
  C   5.87585796385547      4.90850311638991      2.46849614246708
  N   7.03910756616940      2.38485660919660      5.05793925687362
  N   8.76893780531593      4.08648027809300      3.94806625800006
  O   6.26829053066692      0.95342586804393      2.50913064677823
  S   8.96349328793172      5.80828614987120      5.90009980852552
  C   6.26174215550467      1.42107812852599      5.58231920306816
  H   5.87841174681429      0.69627955684022      4.87034385435516
  C   5.96366036234271      1.35780282923838      6.94709508974954
  H   5.32936004372004      0.56113415901355      7.32686588352570
  C   6.50203462997749      2.32680506186819      7.80287397616568
  H   6.29840007155074      2.29909452260781      8.87082851261574
  C   7.31870103296023      3.32641763661913      7.26787715373503
  H   7.77171577570500      4.08123778030773      7.90759064016908
  C   7.56770102296738      3.32254885992516      5.88894958884025
  C   8.40977865957433      4.29632623937165      5.20294010284428
  C   9.74893808485855      6.18495499466101      4.37390950182076
  C   10.49574112071983      7.31881374248156      4.02679170196199
  H   10.66066525011176      8.12598813286812      4.73601969972814
  C   11.02830866507439      7.37653328335020      2.73753541232819
  H   11.61251493723867      8.24540727011508      2.44256231079200
  C   10.83634886761499      6.32238166120817      1.81799441325586
  H   11.28333930401313      6.39081105526940      0.82857758546577
  C   10.09891137186829      5.19273104518592      2.16167061247640
  H   9.97524639086270      4.36182974159684      1.47501993073246
  C   9.53640080013414      5.12575875618532      3.44917122407033
  C   6.59367653792683     -0.38629207638526      2.03585690480887
  H   7.33654808224952     -0.76913114408888      2.73782934798783
  H   5.68801983164613     -1.00403298467861      2.04309364024382
  H   7.02252573840962     -0.34762548552511      1.02694574746704
  H   5.69061513478318      1.39114816079210      1.85247633604765
