49
Coordinates from ORCA-job ALITEV-oxo_1_2_tpss_d4_lanl2dz_631gpol_Co2.opt
  Co  7.61704668824381      2.51692099295264      2.88045820223964
  N   8.40218897512999      2.44225957324886      1.09686095178472
  N   6.48210679404154      3.91382332885775      2.08308186693927
  Cl  9.03274646120876      0.96990940346445      3.73132828606442
  S   5.69781781985218      5.17106828936384     -0.05922719990061
  C   9.39823413176269      1.63590171839704      0.68746418548977
  H   9.87638052362784      1.04928082625370      1.46647433987905
  C   9.77503844300096      1.56333683707080     -0.65868933738386
  H   10.58569910019720      0.89906235740114     -0.94525275177294
  C   9.09794174496230      2.33693675972298     -1.60670943395365
  H   9.36824601372185      2.29125429354803     -2.65893012271112
  C   8.05757905233457      3.16834175244543     -1.18218518567756
  H   7.50253746309049      3.77989655485631     -1.89015278232415
  C   7.73072971645808      3.19432355656734      0.17784513237448
  C   6.69441383877670      4.01185518965036      0.77521306217695
  C   4.92625462061279      5.55852075318295      1.46945335350606
  C   3.90583315706274      6.49056338544020      1.69894968495682
  H   3.48931142772496      7.07897404427953      0.88540031626583
  C   3.44199377199972      6.63815945272683      3.00569118097292
  H   2.64994802466409      7.35360590920942      3.21392090434702
  C   3.98554280270488      5.87062208894613      4.05737631993906
  H   3.60371794124803      6.00432160817514      5.06694925131482
  C   4.99785487264653      4.94205156533748      3.83281604304981
  H   5.39737989886789      4.35489756323372      4.64821664179718
  C   5.48184027978047      4.77611063993271      2.52141732554922
  N   6.84815807916938      2.48110471712146      4.65648995402703
  N   8.77170758368505      3.97403264701617      3.71791523593019
  O   6.48013681282465      1.31377376080051      2.32461831594154
  S   9.45509115073532      5.28724021229883      5.86588375896818
  C   5.87401320610764      1.63009473628270      5.01613116054098
  H   5.50299723189099      1.01411258330650      4.19958012679041
  C   5.42609089215663      1.56911396569798      6.33988249872505
  H   4.63247048630718      0.87531981980005      6.60336639869863
  C   6.01930545165101      2.39454153555683      7.30284577040839
  H   5.69398376699220      2.35775425919250      8.33989410740101
  C   7.04985310359996      3.26081180338423      6.92294236095097
  H   7.54171463195399      3.90221167031325      7.65077618785223
  C   7.45041542792559      3.27909449260909      5.58245184261096
  C   8.49619961035548      4.10720930980573      5.00922790363359
  C   10.29613226353194      5.64119065535947      4.36493927888052
  C   11.32435035013932      6.56777086649642      4.14722934187024
  H   11.71093851025344      7.18167031237910      4.95663730941705
  C   11.83800118101922      6.67546374254062      2.85456958962428
  H   12.63797133043964      7.38513021492340      2.65661564680495
  C   11.33791974070327      5.87717256694563      1.80290402372882
  H   11.76156366552206      5.98326670428401      0.80674561027356
  C   10.31784895640083      4.95489066749953      2.01613766173579
  H   9.94300485000427      4.33781418369330      1.20867742863459
  C   9.78544815290962      4.82901612842774      3.31296825162778
