49
Coordinates from ORCA-job ALITEV-oxo_1_4_tpss_d4_lanl2dz_631gpol_Co2.opt
  Co  7.62624245989079      2.27412817397555      2.92722918499976
  N   8.38409557717194      2.32898946706511      1.01212726699636
  N   6.45425172186488      3.88916403157532      2.03755594452845
  Cl  9.46774288786497      0.99387564824250      3.78019751067840
  S   6.19556681111992      5.57097091048543      0.06141461150193
  C   9.27211399826040      1.43248108049651      0.54912125425640
  H   9.65406633822615      0.73263619112380      1.29049314210109
  C   9.68074109165087      1.43703568398229     -0.78987290196305
  H   10.40437559234338      0.70177336499109     -1.13139641054069
  C   9.14440971447664      2.39183754596750     -1.66160825370150
  H   9.44201676778886      2.41668595194361     -2.70749852468473
  C   8.20754533367093      3.31055083967949     -1.17743505446474
  H   7.75833625880439      4.05223719730903     -1.83481731568869
  C   7.83881438775075      3.24744318546155      0.17224265358931
  C   6.86833029022015      4.13390720140893      0.80748971343920
  C   5.27327363664354      5.85791649240015      1.52865648960096
  C   4.37778125797855      6.89907796627617      1.80754067467150
  H   4.17150460552848      7.67820205755897      1.07803274067999
  C   3.75209621431268      6.89956577335828      3.05515764618688
  H   3.05124628032560      7.69516273001718      3.29804107138216
  C   4.00141626406878      5.87967726231796      3.99964403224338
  H   3.48231505747477      5.90121050475039      4.95537227840649
  C   4.88843225987767      4.84271001101571      3.72545009439584
  H   5.06174917028665      4.04267893747961      4.43669406335149
  C   5.54377721326980      4.83325985041463      2.47966450513520
  N   6.85276750288351      2.27607338601376      4.79515054183781
  N   8.64417478614475      3.86877387159711      3.72132024517304
  O   6.65469816759588      1.05135861062265      2.48568887748136
  S   9.00045909842674      5.54045775258651      5.69001094031008
  C   6.01463366021221      1.33810401732103      5.26568353406755
  H   5.69646518740153      0.59015937785743      4.54384467096297
  C   5.59509464358942      1.33695805816444      6.59965205214187
  H   4.91738607628374      0.56266686967050      6.94877374988575
  C   6.06665930456926      2.33529974880920      7.46172797510320
  H   5.76085792988483      2.35440764230616      8.50515836047029
  C   6.94941119423442      3.30219835241969      6.97204255556567
  H   7.34907979695659      4.07731921462037      7.62234649269644
  C   7.33053464727429      3.24142328382742      5.62592118078962
  C   8.26487760773107      4.13504122374976      4.96716030390214
  C   9.90563608164315      5.78977093603138      4.20728145801523
  C   10.83397090424508      6.80038727787199      3.92464541333865
  H   11.06461934084322      7.57301186192175      4.65376026861232
  C   11.46332847087801      6.77386794216993      2.68017508233688
  H   12.19232660143445      7.54277793446918      2.43453543982143
  C   11.18492145539959      5.75221647830084      1.74700491144058
  H   11.71381454388739      5.74037295487138      0.79656513893577
  C   10.26110848697014      4.74890981370151      2.02386406396933
  H   10.08072603541972      3.94479651662221      1.32298689875255
  C   9.59390728521910      4.77226881517684      3.26240342728792
