48
Coordinates from ORCA-job ALITEV_1_4_tpss_d4_lanl2dz_631gpol_Co2.opt
  Co  7.75189796489936      2.06198843333481      2.92307861555928
  N   8.43247804892757      2.10195398495116      0.93339136342051
  N   6.56334135583582      3.68412329391598      2.05500734187774
  Cl  8.24024313441189     -0.15120702576976      3.26077554694187
  S   7.05266505871646      5.83153312697153      0.64598721873606
  C   9.20253836665701      1.16943408005183      0.34030751933644
  H   9.43435888688745      0.30188740641609      0.95464010245697
  C   9.66720636161397      1.31995047548190     -0.97186696450448
  H   10.29315175541690      0.54858163645085     -1.41241765984048
  C   9.31144193512335      2.46622714139055     -1.69215109832700
  H   9.65249885069378      2.60571960955576     -2.71547496951548
  C   8.49560185286400      3.42809524425515     -1.08597696479443
  H   8.17480689097403      4.31585822080289     -1.62697375140946
  C   8.07314630764180      3.21060404287612      0.23009697180569
  C   7.21215632855839      4.12160821529391      0.98341312194819
  C   6.00313153610685      5.97609788348828      2.04652002662341
  C   5.37809354961386      7.12008368362007      2.56071185723926
  H   5.50699415478927      8.09331582746617      2.09393912421574
  C   4.56881401351737      6.96654686672615      3.68830194860086
  H   4.07136411236706      7.83824368192564      4.10769481873004
  C   4.35921648197787      5.69812097487466      4.27213045397519
  H   3.69181908688139      5.60789514275812      5.12626070568021
  C   4.97855369621944      4.56015547821779      3.76321414386334
  H   4.79815495704536      3.57741254911863      4.18758606785274
  C   5.83695858452414      4.70245676906363      2.65696483513658
  N   6.88390690580406      2.15041540938428      4.85500256994808
  N   8.73966153371053      3.74604542691685      3.79877652149070
  S   8.20873036731475      5.89334501997730      5.18669249249099
  C   6.11299297787432      1.20083252762726      5.41753453191438
  H   5.93503270477890      0.31878198974859      4.80754568412974
  C   5.59134075656033      1.33757434801122      6.70912479381434
  H   4.96620213037137      0.55157512710028      7.12422796300450
  C   5.90018002914051      2.48634460532680      7.44828434126668
  H   5.51993745522533      2.61257458642637      8.45942215192902
  C   6.72435485120609      3.46258393907968      6.88003267032779
  H   7.01342315206254      4.35037237170418      7.43858249368591
  C   7.19845821984539      3.25839820881245      5.57867171032684
  C   8.07134310168203      4.18060925010846      4.85824625375004
  C   9.26163583288364      6.04390477241333      3.78753097605023
  C   9.86218732860261      7.19410126946969      3.25804577212543
  H   9.71628604573582      8.16976409953630      3.71473327206021
  C   10.66447444594253      7.04488677402370      2.12466693342192
  H   11.14043031593594      7.92228182608662      1.69235242624786
  C   10.89083822707708      5.77578926860667      1.54810050620810
  H   11.54909092029217      5.69157557870289      0.68628427575436
  C   10.29799361510656      4.63097620101173      2.07328686693283
  H   10.48689615047986      3.64699146629883      1.65408705457102
  C   9.45086966010231      4.76888919038817      3.18830736293994
