49
Coordinates from ORCA-job ALITEV-oxo_1_6_tpss_d4_lanl2dz_631gpol_Co2.opt
  Co  7.56913283389080      1.87735931876159      2.88350107267084
  N   8.42283822911007      2.10458388521498      0.93171054239770
  N   6.54741621166762      3.68387129803817      2.02776189958973
  Cl  9.28210036107715      0.55597861199615      3.64338611797452
  S   7.07851837699664      5.85309563055821      0.67260655702120
  C   9.20507860007942      1.17852232836929      0.34669254630378
  H   9.41238288236645      0.29181582228446      0.93948948722987
  C   9.73063545217183      1.36053035563979     -0.93719569009199
  H   10.36043477484256      0.58996224103892     -1.37349360867710
  C   9.43247190388820      2.53864728034198     -1.63242322128582
  H   9.82562235056735      2.70650508536080     -2.63246498679004
  C   8.60891948596593      3.49476069222607     -1.03128236294721
  H   8.33615081209812      4.41023434053410     -1.55177010389815
  C   8.11411711310275      3.24025901338411      0.25392709807140
  C   7.22982662324874      4.13765549643977      0.98954847913085
  C   5.98652535929144      5.97176630185973      2.04154119299140
  C   5.34618730162098      7.10781018436147      2.55442590208505
  H   5.49425989297618      8.08890210124056      2.11025991267809
  C   4.49797744575313      6.93632068179541      3.64993515600909
  H   3.98976902560908      7.80185278893605      4.06919230418453
  C   4.26334380870282      5.65725737336411      4.20037616877271
  H   3.56374515352921      5.55308039199022      5.02672635384393
  C   4.89693549382408      4.52664450230274      3.69301118619301
  H   4.69523060827038      3.53629722951339      4.08818936181809
  C   5.79707283618047      4.68658982089776      2.62291712456203
  N   6.75382304360604      2.16311782871752      4.81338634017037
  N   8.68413732277937      3.72701126893697      3.75255108699614
  O   6.39196232456955      0.69684714779500      2.41726533659190
  S   8.17756057146560      5.88095533580986      5.15040106539734
  C   5.93797590011686      1.24863366575145      5.37219344539362
  H   5.69657190968326      0.39197441055355      4.74856639932390
  C   5.43329144835436      1.40585189750237      6.66625487711846
  H   4.77694347956431      0.64795613618164      7.08519761422380
  C   5.79187063729151      2.54574181875802      7.39751147720023
  H   5.42029152118872      2.69274374254136      8.40909165656735
  C   6.64570015069084      3.49006497433150      6.81977763827221
  H   6.96240342185813      4.37321882724518      7.37029097797511
  C   7.11446138875610      3.26673502471896      5.51908726357528
  C   8.01110899125169      4.16706381324593      4.79819214040782
  C   9.26834549384533      6.01222967929076      3.78062684335829
  C   9.91955784516749      7.14649637255293      3.27678778358890
  H   9.78974518638088      8.12418025589442      3.73402786112442
  C   10.75659018887527      6.97749467470379      2.17154467596946
  H   11.27419993131988      7.84201683304227      1.76150997546427
  C   10.96931629946635      5.70396660422454      1.59828499209490
  H   11.66054156060352      5.60436619093738      0.76424353432650
  C   10.32498835548251      4.57515618533937      2.09560624355087
  H   10.50666127607716      3.58435501619053      1.69021451287104
  C   9.43895881477329      4.73331951928462      3.17801776860012
