15
central aromatic rings
C    -1.610400    3.142500    0.000000
C    -0.692700    0.876200    0.000000
C     0.595800    1.418700    0.000000
C     0.765300    2.821200    0.000000
C    -0.314400    3.657000    0.000000
C    -0.824100   -0.721100    0.000000
C     1.720200    0.583800    0.000000
C     1.589300   -0.814100    0.000000
C     0.330400   -1.439900    0.000000
C     0.254800   -2.982800    0.000000
C    -0.996500   -3.616500    0.000000
C    -2.158900   -2.851400    0.000000
N    -1.752900    1.868100    0.000000
N    -2.048700   -1.523000    0.000000
Fe   -3.935900    0.351900    0.000000
