50
conjugated chains
Fe   31.738600    4.463800   16.505700
N    30.229900    4.222100   15.150100
N    31.789600    2.432100   16.779200
N    33.229300    4.707800   17.885100
N    31.651600    6.526300   16.255000
C    29.646100    3.020100   14.768800
C    30.022900    1.753100   15.179300
C    31.032000    1.483700   16.118600
C    31.459000    0.176200   16.524200
H    31.082700   -0.650400   16.243400
C    32.496800    0.323900   17.375700
H    32.998400   -0.373600   17.785100
C    32.700000    1.739500   17.544500
C    33.667300    2.315200   18.377000
C    33.873100    3.699100   18.560700
C    34.880900    4.280100   19.424500
H    35.454600    3.810300   20.016300
C    34.849900    5.604700   19.232600
H    35.398800    6.245100   19.667300
C    33.833700    5.893500   18.250400
C    33.566800    7.150400   17.702700
C    32.569900    7.426800   16.764800
C    32.404700    8.674500   16.089100
H    32.879200    9.475300   16.271300
C    31.454700    8.511900   15.144600
H    31.153800    9.176400   14.534700
C    30.982000    7.164000   15.226100
C    30.082700    6.561100   14.334500
C    29.686700    5.211400   14.350800
C    28.681900    4.630400   13.488100
H    28.147000    5.093600   12.853900
C    28.651700    3.306200   13.753200
H    28.073400    2.672100   13.344200
C    29.412100    0.577500   14.461500
C    34.579200    1.385300   19.118700
C    33.970000    3.879300   14.377800
O    34.269700    2.687900   14.559800
O    33.087500    4.520100   15.007100
C    29.616600    7.352600   13.145100
C    34.597700    8.223200   17.971200
C    28.352300    5.593300   19.261300
C    28.323600    4.545100   20.169200
H    27.682700    4.544300   20.870700
C    29.217300    3.508000   20.057200
H    29.192400    2.773100   20.658700
C    30.145900    3.573000   19.044200
H    30.773200    2.865400   18.969200
N    30.218700    4.570200   18.161100
C    29.327900    5.547200   18.272500
H    29.359900    6.253900   17.639500
