59
Coordinates from ORCA-job BAPCOL-oxo_2_2_tpss_d4_lanl2dz_631gpol_Fe3.opt
  Fe  7.46222615997774      0.81232850142939      2.87683496600861
  Cl  5.27118508864626      0.45637537845597      2.59014353960337
  Cl  7.08969801296998      2.99114566680201      2.59358823960576
  O   7.92315499707353      0.27668079913534      1.43396321673869
  N   9.47832553730679      1.17289380556172      3.32771845113767
  N   11.72086799177348      2.89592145850785     -0.23506456024351
  N   7.80678421558290     -0.97432200579053      3.68794173406655
  N   9.19798763038821      2.89098914993215     -0.68591445304109
  N   7.25556953463957      1.24986309272285      4.91154989021678
  C   10.08349288688927      1.91373042943467      2.17007182190849
  C   11.58516803061818      2.24842509932070      2.24601094363183
  C   11.92161156345229      3.33852891250735      1.21207737657245
  C   12.90598696850120      2.15791078491125     -0.79372545014162
  C   11.25485154062431      4.05157134126025     -1.10899387069988
  C   9.73423648248779      4.09114308017620     -0.98654886530106
  C   8.96747592975247      5.24081661207321     -1.20023195733119
  C   7.57373276924217      5.12583144606981     -1.09700556665036
  C   7.00837390403561      3.88224902045410     -0.78768487234429
  C   7.85883192423812      2.78368515591610     -0.59289464835078
  C   10.08797565211727     -0.18896983797946      3.46890723652922
  C   9.10467507734491     -1.18662538762302      4.02017653140816
  C   9.48820253149375     -2.33006545016851      4.72124692038831
  C   8.51703875754252     -3.28133270552835      5.05888554166956
  C   7.19023648481762     -3.06131246874323      4.67688148096931
  C   6.86173513230388     -1.88777360118536      3.99564544940420
  C   9.53866676716447      1.97747731042233      4.58987664714133
  C   8.40283697147870      1.63512488131938      5.51867635557777
  C   8.47284939086576      1.82084658110293      6.89987366210048
  C   7.31742112591165      1.62852286959721      7.66805708575641
  C   6.12947871704351      1.26344387043933      7.02596769115698
  C   6.13516179168769      1.07198048940061      5.64286646306025
  H   9.50191070383857      2.83606831014965      2.07803175798593
  H   9.85773894485863      1.30027007849327      1.29191249104693
  H   12.21666980310639      1.35964010119050      2.10820960846270
  H   11.84855999021320      2.67857641595480      3.22231171284088
  H   12.96157536202659      3.67085797512106      1.29620949696575
  H   11.26196359664665      4.20057695802083      1.36111881281516
  H   13.17185677189110      1.34732311405038     -0.10982436041785
  H   13.74269159390651      2.85493165096899     -0.89563952233673
  H   12.63088262970999      1.74780855350807     -1.76907110319925
  H   11.74934090345637      4.97371621714915     -0.78836381218107
  H   11.56147634249777      3.82439414542580     -2.13737965451176
  H   9.43732706929943      6.19315079572283     -1.43758452084435
  H   6.94131476039778      5.99745328288726     -1.24956822271831
  H   5.93301099187059      3.75681239888792     -0.69527984888563
  H   7.46784516040781      1.79311448821792     -0.36457987553331
  H   10.36284692261770     -0.51544544523497      2.45654906597440
  H   11.00164045104506     -0.14300473582993      4.07544376652829
  H   10.53349522044456     -2.47702885488781      4.98292330235341
  H   8.79623208633835     -4.18019662746075      5.60377718087469
  H   6.40577712892755     -3.77929384687610      4.90070650972291
  H   5.84959292198047     -1.65331272409267      3.68101434423918
  H   10.51204270035355      1.84971639427181      5.08197456805583
  H   9.43066248352537      3.02972424284986      4.29394370787229
  H   9.40959486318760      2.12544748897969      7.36115457521375
  H   7.34572746313854      1.76968857009254      8.74607086485827
  H   5.20513930278719      1.12190192315554      7.57965504990060
  H   5.24657199731966      0.78457420666221      5.08846339703721
  H   10.84867226623476      2.29045064268775     -0.27957629266852
