58
Coordinates from ORCA-job BAPCOL_2_6_tpss_d4_lanl2dz_631gpol_Fe3.opt
  Fe  7.02924661396413      0.57192092959299      3.86167324630080
  Cl  5.17965524324963     -0.68011830561074      4.08559990082747
  Cl  6.45000136628998      2.22330061921843      2.46490987624016
  N   9.15996330732371      1.34658058660833      4.00018800098939
  N   11.15975178202601      2.28188929461556      0.03813020981409
  N   8.22507364467154     -1.06307645969726      3.30062824675910
  N   8.91643125126136      3.26013340416588     -0.62656969055612
  N   7.11900249230327      1.34072025448370      5.79678046125410
  C   9.67331525131514      1.74513896133141      2.65300442318028
  C   11.17033856981389      2.12034557812763      2.59791134016879
  C   11.52536686596532      2.94835568934348      1.35358002315008
  C   11.87520240968029      0.98875808327165     -0.21429469659956
  C   11.27367949861322      3.27208734330836     -1.10992354919252
  C   9.90312584488031      3.92978833111878     -1.25506820590056
  C   9.68741753302460      5.08510195717130     -2.00863028077276
  C   8.37104934920936      5.55261087578370     -2.12204261466136
  C   7.33773049211820      4.85793599701842     -1.47946582786346
  C   7.65169955615017      3.71673707460860     -0.73537025631229
  C   9.87370720717138      0.17088202796878      4.57129117965785
  C   9.50044177339830     -1.05784356205278      3.77225433119046
  C   10.36204552424110     -2.13270422938217      3.55347793845050
  C   9.89348453741123     -3.24265020730009      2.83582601724573
  C   8.58081246273179     -3.23848730112621      2.34819200832773
  C   7.76998113642305     -2.13203721488764      2.60284936248698
  C   9.09357444413787      2.49282243143479      4.94416210499488
  C   8.15057583385098      2.18095080305375      6.08452103809041
  C   8.28536631306643      2.76070421729839      7.34561911172396
  C   7.32301888183092      2.49077098434009      8.32784432323578
  C   6.25788241334790      1.63580690704032      8.02173402326095
  C   6.18805825840117      1.07227986937263      6.74859925518517
  H   9.05305712085920      2.58693936387351      2.32716881444417
  H   9.45554755349024      0.90905572854654      1.97504704813970
  H   11.81188163873940      1.23160849249355      2.66361639218548
  H   11.43580266251412      2.75919750627760      3.45193308468777
  H   12.60008224822528      3.15867490418791      1.31560607785344
  H   10.97641887163518      3.89704874405338      1.35600495930696
  H   11.66464691924759      0.29908385461010      0.60722444907969
  H   12.95042516773217      1.17883544622674     -0.28287427382179
  H   11.50457371376907      0.56732971542491     -1.15241479189423
  H   12.07799420942311      3.98319038462251     -0.89479992824376
  H   11.53821550117265      2.70525368839492     -2.01043861536771
  H   10.51190584874187      5.60043527276891     -2.49719794148966
  H   8.15776739583644      6.44676492210048     -2.70342857690611
  H   6.30668822875788      5.19476837161086     -1.54856305272972
  H   6.88994825445605      3.14889152263518     -0.20655423909613
  H   10.96240695595407      0.31787988843443      4.60084495626533
  H   9.53024365813467      0.05339686615163      5.60916583170791
  H   11.37406457833542     -2.10928029540953      3.95206821610517
  H   10.54388657182599     -4.09751206640813      2.66375120655611
  H   8.18073666173263     -4.08045442032545      1.78971702791868
  H   6.73704282736327     -2.08097439198203      2.27022248398735
  H   10.08508566336113      2.76725265235566      5.33370232682611
  H   8.69742786395259      3.34627679107619      4.37584731073657
  H   9.12570099314657      3.41948482606515      7.55272733493831
  H   7.40777169770631      2.93875817556949      9.31535161844256
  H   5.49094027841089      1.39892298037431      8.75413437614224
  H   5.39078994276211      0.39588915049496      6.45629781623086
  H   10.09514711484014      2.15227698555576      0.04502878731818
