60
Coordinates from ORCA-job BAPCOL-OH_2_1_tpss_d4_lanl2dz_631gpol_Fe3.opt
  Fe  7.43443091312003      0.67711933059651      3.01088746332788
  Cl  5.32801113659310      0.03326874376991      2.58638256905710
  Cl  6.94473578324257      2.81265556120324      2.64691596434661
  O   7.93157821713389      0.11511085853456      1.40871692838599
  N   9.41563039375539      1.13147282947795      3.34776112264295
  N   11.65504464758011      2.87142658554271     -0.23254606402524
  N   7.91773243794114     -1.07774686726115      3.84343395309465
  N   9.17523305161221      3.14080948708606     -0.70688862145770
  N   7.18108334526457      1.12589877550834      4.95050136435326
  C   9.95835183722667      1.96871496568584      2.21927633873990
  C   11.47591166968774      2.23527443542997      2.24144459377622
  C   11.84739568882205      3.31613822737829      1.21102760350989
  C   12.76560530506018      1.99636019215213     -0.73890155651428
  C   11.35403285351486      4.05561857327510     -1.13757341786114
  C   9.83946339002209      4.24705588038209     -1.09797793148249
  C   9.19971875105738      5.43093710974512     -1.47015441069149
  C   7.79778877398629      5.45171922879660     -1.43987926073948
  C   7.10077025168615      4.30548331910659     -1.03671210271751
  C   7.82879701376251      3.16741418049748     -0.67364777382631
  C   10.11065023013638     -0.19757837736934      3.37643388713690
  C   9.25106568179688     -1.23613267142718      4.03746310501743
  C   9.75673109281347     -2.34113302113974      4.72192693047579
  C   8.86626026727048     -3.31041463227511      5.20106069631345
  C   7.49545115160762     -3.14099734180647      4.97956597024174
  C   7.04933779941802     -2.00453805490774      4.30326905174562
  C   9.48237820169749      1.85701604834287      4.66322899571176
  C   8.31949070524211      1.52304041900985      5.56836121253780
  C   8.35385258234413      1.73730858662871      6.94686518664803
  C   7.17843327189966      1.56454732833667      7.68945487276319
  C   6.00199841219843      1.19036422817560      7.02972142137653
  C   6.03917637725489      0.96776166654761      5.65269535503340
  H   9.41535007813181      2.91715114959815      2.25782152679096
  H   9.64423475522194      1.45268551250590      1.30642306142773
  H   12.06180105011082      1.32105768360199      2.07286270984943
  H   11.78696900607645      2.63568235579852      3.21691284501631
  H   12.89473161280836      3.62161869508873      1.30886370330689
  H   11.20843261222691      4.19608790783750      1.34536707899108
  H   12.90794816471082      1.16586332152438     -0.04265634501742
  H   13.68213164323191      2.58907519096974     -0.81092081261569
  H   12.48268042623546      1.61186297052584     -1.72234080596375
  H   11.91749296391101      4.92879498886234     -0.79354175729300
  H   11.69418109484498      3.79138542277700     -2.14620466463788
  H   9.76899407228594      6.30570986788998     -1.77776105718636
  H   7.25986838115239      6.35335500500139     -1.72398960353129
  H   6.01482695417460      4.29176653980271     -0.99706999443848
  H   7.33962012032784      2.25480388068431     -0.34167553262250
  H   10.25687301892390     -0.49081450718650      2.32832050138539
  H   11.09133557108224     -0.11374651773219      3.86266813713317
  H   10.82969080960693     -2.44281220602431      4.86701279159587
  H   9.23848286623216     -4.18081558270931      5.73649498578945
  H   6.76884262035561     -3.87114846226486      5.32577224082961
  H   5.99844179789070     -1.81470470492081      4.10721321588748
  H   10.44251258169199      1.66826248027582      5.16145016663428
  H   9.42103445413137      2.92866175425268      4.43068874886720
  H   9.27839606863190      2.05021209659090      7.42681638398409
  H   7.18196218766019      1.72955148213473      8.76445168337399
  H   5.06542380002825      1.06618462025151      7.56657542885663
  H   5.16659895261391      0.66897250930976      5.07833664673054
  H   10.71120056884340      2.37588719294790     -0.28910181319766
  H   7.15219053210710     -0.32472624241697      0.98644708313333
