64
Coordinates from ORCA-job BAPCOL-CH3OH_2_4_tpss_d4_lanl2dz_631gpol_Fe3.opt
  Fe  7.19016906819465      0.15799798601317      3.20009422378752
  Cl  5.13749569064020     -0.83444699724245      2.91721527278795
  Cl  6.63290678852240      2.07940160263162      2.17431485145062
  O   7.83224122728763     -0.51759580786993      1.33893931301827
  N   9.35363830172327      0.94206698760589      3.44737199609432
  N   11.32031418296784      2.95241254248924     -0.10968328490304
  N   8.00246456546512     -1.36485550665452      4.21074454307981
  N   9.02918786926247      3.96796351624072     -0.53679618331300
  N   7.01943690206287      1.03920667470261      4.99771634761684
  C   9.83249229302326      1.71889718980024      2.26443215464240
  C   11.31581411033963      2.14740477174970      2.32311391563672
  C   11.64989054919690      3.27595233328453      1.33722329213703
  C   12.10557167874754      1.80606919652115     -0.67390286355417
  C   11.38554421220035      4.20524742668417     -0.96646808779857
  C   9.98760912471518      4.81923263282427     -0.95362455969503
  C   9.72468859181558      6.12308245708545     -1.37811049944147
  C   8.39022223339509      6.55131469679046     -1.38023631519239
  C   7.38647626119779      5.67163955198697     -0.95411541572724
  C   7.74750876132073      4.38800578324271     -0.53378742175579
  C   10.11990397482293     -0.32040568931980      3.60632418990269
  C   9.34865829235766     -1.33828385434271      4.40753369051939
  C   9.97673859387119     -2.25846961574791      5.24889020777892
  C   9.21175390040442     -3.23739294611695      5.89402276302495
  C   7.83039504255129     -3.26071193734624      5.67845575828486
  C   7.25612497485829     -2.30485668067047      4.84023701662958
  C   9.34153505115929      1.77797557688946      4.68031719823832
  C   8.12846232554839      1.55880328375505      5.56610386949504
  C   8.11416946318736      1.99789851203817      6.89331840436632
  C   6.92453670077550      1.92536034006768      7.62587046435335
  C   5.77434108582373      1.42055218906935      7.00774564204662
  C   5.85746357179278      0.97493533110623      5.68923414395616
  H   9.17928259258057      2.59428676877708      2.18278758401990
  H   9.63208983342264      1.08565039529716      1.39088216789588
  H   11.98854500839771      1.29170444279395      2.17586875205847
  H   11.55179653430092      2.55727178782739      3.31578464124882
  H   12.71580853380206      3.52828111656573      1.37079895535391
  H   11.06456669386781      4.17290104053632      1.57106865457154
  H   11.93898070734403      0.92084188579779     -0.05529153857621
  H   13.16782884525751      2.06761602165153     -0.68082710298071
  H   11.75572905897388      1.61632454745701     -1.69197475253947
  H   12.15743415996400      4.87410088794940     -0.57161420324408
  H   11.67372802290024      3.89891568303494     -1.97918339558125
  H   10.52779648016112      6.78172290382120     -1.70259287269629
  H   8.14062257442141      7.55810257085467     -1.70750960280245
  H   6.34256510080263      5.97394103660946     -0.94192335192619
  H   7.00965390224530      3.67237538881631     -0.17860142281453
  H   10.28361240115994     -0.71923393137083      2.59490505478088
  H   11.10565066820904     -0.14601551144483      4.06399002383491
  H   11.05424173253693     -2.20814401979196      5.38849534319804
  H   9.68573286504479     -3.96223880889955      6.55184976080794
  H   7.19192818547390     -4.00056952255740      6.15377167282489
  H   6.18876213707007     -2.27029486344885      4.64280509258589
  H   10.26335426575045      1.63830623822446      5.26389404217180
  H   9.31042211165564      2.82727615213139      4.35752695715333
  H   9.02086077388287      2.40402994656639      7.33707402186765
  H   6.89516018624722      2.26519285203791      8.65861134451091
  H   4.82421926969165      1.36324486078471      7.53196416605583
  H   5.00937339696558      0.55835388707984      5.15335990070379
  H   10.26704793515179      2.76931462467957     -0.14984318153287
  C   7.64786485340344     -1.92552851196404      0.95793764542877
  H   6.59865470421312     -2.20780950598814      1.08371564648973
  H   8.28360454332502     -2.50275873018626      1.63138998605213
  H   7.97786095144871     -2.04584198931032     -0.07848964338528
  H   7.25666558109562      0.04530880839995      0.76839502699700
