58
Coordinates from ORCA-job BAPCOL_2_4_tpss_d4_lanl2dz_631gpol_Fe3.opt
  Fe  7.35375934154079      0.71816607775568      3.16691452564782
  Cl  7.38891356287795     -0.12633710456554      1.13772460250212
  Cl  6.57710967674357      2.71353930024482      2.69464392977482
  N   9.48958774680879      1.12859637274654      3.46961116705476
  N   11.55599392632575      2.87282135466087     -0.21369398448666
  N   7.86108817465902     -1.06401143954767      3.86807942086436
  N   9.08995765750779      3.19591048028004     -0.69158137802106
  N   7.24862565084203      1.18498395753988      5.08864396333504
  C   9.95074535701752      1.93434816832808      2.29561062536810
  C   11.44673072009930      2.30968770659034      2.28309999457237
  C   11.76124584227045      3.36516784533428      1.21067787602691
  C   12.63645738096394      1.94759196210946     -0.69210242900687
  C   11.29346360798627      4.03471064284276     -1.15696967376387
  C   9.78268507441993      4.25845125591519     -1.14865607741911
  C   9.17482066747688      5.42549283721166     -1.61400186110267
  C   7.77350754419362      5.47443856744883     -1.61213763841928
  C   7.04708365684613      4.37160173047076     -1.14499600554515
  C   7.74312152229467      3.24822660161820     -0.68708687917948
  C   10.12146192249875     -0.21873025936774      3.53273986757673
  C   9.18154131201024     -1.26440106839652      4.09625761363018
  C   9.62666118294668     -2.43686246216476      4.71072605196568
  C   8.69424757757510     -3.41964797192547      5.06555378180524
  C   7.33639580880202     -3.20851282762989      4.79328438126924
  C   6.95239559817722     -2.00931115396361      4.19577108281634
  C   9.56759318129305      1.87967344012390      4.75440409922999
  C   8.40465458754556      1.57410778468802      5.67730156150963
  C   8.46073747786858      1.79163766433074      7.05625501847415
  C   7.30093714778567      1.62842842731075      7.82316894236969
  C   6.10693244704663      1.25551548384434      7.19174870289722
  C   6.11864123010390      1.03536178177252      5.81608040894554
  H   9.33032836788877      2.83792842330870      2.28294829047218
  H   9.67221427101009      1.35190179407750      1.40985392616524
  H   12.08361869172372      1.42259341804234      2.15868665602690
  H   11.73404217078961      2.76777874120789      3.24037479916401
  H   12.79936657067714      3.70889870260652      1.27803914119475
  H   11.09513417220379      4.22755526416740      1.32813975906157
  H   12.74475356764042      1.12635105608833      0.02082033134431
  H   13.57468371033889      2.50473990188786     -0.77009954014784
  H   12.34582005645248      1.55282470409734     -1.66914122465939
  H   11.86877454332847      4.90656607486092     -0.82892915927286
  H   11.64399604313196      3.73642785876206     -2.15236903775543
  H   9.76734140914975      6.26488680711349     -1.97224752832471
  H   7.25896645001703      6.36344812555655     -1.96989130579697
  H   5.96045281579228      4.38034778578430     -1.12964007040784
  H   7.23126267738533      2.36969178930159     -0.30156019420569
  H   10.34855753623123     -0.51243008911430      2.49804510048983
  H   11.06497915001934     -0.19895930026089      4.09699332650390
  H   10.68879736719293     -2.58148509394722      4.89484775117234
  H   9.02432077578356     -4.34015102284266      5.54153533034359
  H   6.58440950291481     -3.95334836949871      5.03889573128127
  H   5.91537607131054     -1.78614139666945      3.95847852594888
  H   10.52298107548294      1.70398866540133      5.26955120971607
  H   9.51125291867552      2.94872393024164      4.50605157708419
  H   9.39705670782819      2.09751534635271      7.51753274256628
  H   7.32734863376273      1.79708112122717      8.89726424291513
  H   5.18222101164937      1.13418739322158      7.74923057369251
  H   5.22588639028100      0.74717313499958      5.26702732555656
  H   10.59216075680888      2.40896007841967     -0.25090997082099
