36
Coordinates from ORCA-job CTHUCO10-OH_1_3_tpss_d4_lanl2dz_631gpol_Co2.opt
  O   6.88314238294220      0.05491083410697      2.10816343418766
  Co  6.92752471206804      0.46142062718165      0.35666249954952
  C   7.61913481904741      4.04399716593973      0.10405420993886
  C   3.64596213290094      0.92950286980237     -0.03523122581444
  H   6.88300491049375      3.03425114940093     -1.51289266459215
  H   6.59594736638856      4.76018135305531     -1.54203526880242
  H   7.77030957613553      6.11152042162133      0.06176725342443
  H   8.31237116381641      5.34046947078609      1.51249086966038
  H   2.38627870556235      1.41172749841619      1.49653849360073
  H   1.59259316890254      0.68103025449408      0.13266769733257
  H   3.08482980469804     -0.41482409090058     -1.48570533398315
  H   4.67919753752216      0.27173316024185     -1.65081246420531
  N   7.02980754805033      3.95680317122501     -1.09692908203197
  N   7.79481560107144      5.27686138410596      0.64210229449373
  N   2.45707269583505      0.94233524075936      0.59998915505706
  N   3.75361886897608      0.30015023843037     -1.21084144038357
  S   8.16330269660777      2.65498768618335      0.97746582042094
  S   4.98531918796425      1.79802004263795      0.67043880608945
  Cl  6.89977764847849      0.82287899380637     -1.94786433536266
  S   5.83908376208169     -1.93467560926735      0.12520329881428
  S   9.09220856718461     -0.49736058018226     -0.01288663875638
  C   6.53794559290662     -2.90507847329528     -1.11587639658583
  C   9.40102902001913     -1.74433326413058      1.15688402291498
  N   6.48628211046163     -4.26068577232432     -1.00709571292119
  N   7.14922345566108     -2.39197762225178     -2.19724937361074
  N   10.38950925572544     -2.64044950979944      0.88199900162862
  N   8.72369554076315     -1.85781403947283      2.29774190712152
  H   5.91915458601988     -4.64332368521659     -0.25758222401316
  H   6.61741245338514     -4.85240988308705     -1.82407434312462
  H   7.73026292894198     -2.97189213649654     -2.79663001409682
  H   7.29295315084900     -1.37951777377311     -2.24227804829544
  H   10.96752994817759     -2.45582000436778      0.06726838679220
  H   10.85616697221764     -3.11884709504846      1.64962871288496
  H   8.81543374896095     -2.68538919573221      2.88017503047920
  H   7.94589371823783     -1.19204219668268      2.47090494806879
  H   6.44947466094428      0.77827936983401      2.61261872411998
