36
Coordinates from ORCA-job CTHUCO10-OH_1_1_tpss_d4_lanl2dz_631gpol_Co2.opt
  O   7.00694417999476      0.05106360894112      2.15017695782138
  Co  7.02470849136132      0.39478232796428      0.29300291492895
  C   7.47896591878523      3.76824969341059      0.19228145114983
  C   3.70586394595060      0.93824693570386     -0.24138854834902
  H   6.66249675673474      2.93136230233338     -1.47372508565230
  H   6.20587978715885      4.60528026835778     -1.19337364311475
  H   7.56652396016637      5.82319839920666      0.43085474984407
  H   8.22288874863043      4.88349102263014      1.72893594508648
  H   2.31750640997524      1.34198877730276      1.20262945636365
  H   1.63832907169082      1.01920956303564     -0.35996857072327
  H   3.14678015029270     -0.06974533229858     -1.94348687879063
  H   4.82931980746035      0.41554386049110     -1.85770255085580
  N   6.76586043211353      3.79790744529823     -0.93527472659462
  N   7.66270821071659      4.91726191440330      0.88314759841052
  N   2.44611771666642      0.99780163838688      0.25669589076313
  N   3.87365939921199      0.47488382992321     -1.48774269981304
  S   8.24403586779109      2.32166152648809      0.78823402797604
  S   5.00353292990616      1.47674644325137      0.76878522313049
  Cl  6.98494125858372      0.81205694859304     -2.01573847872339
  S   5.90903545566852     -1.64271825518698      0.27356713852265
  S   9.12374764916672     -0.55088931285304     -0.13703677709295
  C   6.46675436031177     -2.73694506752794     -0.94850879180388
  C   9.49519787274222     -1.73453498796831      1.09215351130661
  N   6.27514995813275     -4.06611700741336     -0.73560315888220
  N   7.05412389466840     -2.36416992795718     -2.09325550550393
  N   10.49937868290437     -2.61870995752753      0.82786662965244
  N   8.83125321212603     -1.79400218683081      2.23723680580559
  H   5.77306868501584     -4.34158023191821      0.10278694964685
  H   6.23404064204593     -4.71189825879044     -1.52042111170674
  H   7.58053638364107     -3.03547629022588     -2.64628955061960
  H   7.26835980385562     -1.37086595346602     -2.23174327524490
  H   11.06502316016948     -2.44381415177055      0.00210365592817
  H   10.98771230557114     -3.05906020599415      1.60447586902405
  H   8.99380779015231     -2.54990188306556      2.89781254801060
  H   8.04190568759817     -1.08075532379596      2.37150451019367
  H   7.29111141303817      0.88506782886908      2.58578751990583
