36
Coordinates from ORCA-job CTHUCO10-OH_1_5_tpss_d4_lanl2dz_631gpol_Co2.opt
  O   7.06773205003067     -0.01018303265601      2.24924541213372
  Co  6.87637657195534      0.29000991057959      0.41766805198113
  C   7.55283070946222      3.85365621423809      0.18537012668223
  C   3.57180738592274      1.09228382792366     -0.27995984860790
  H   6.97319982390999      2.93913891864076     -1.54191642322410
  H   6.44765729022803      4.60227911020010     -1.38456772110369
  H   7.44369045085659      5.91368401875609      0.39651945440941
  H   8.03330966379611      5.03848488736121      1.77106227812596
  H   2.17764283056489      1.43255881436211      1.17291878038911
  H   1.50288048692203      0.89803251140257     -0.33872184074341
  H   3.06017716206155      0.08798504308743     -2.00430451089018
  H   4.73351171355197      0.60306895081932     -1.88315214131436
  N   7.01162135170865      3.83146221428348     -1.03773432985277
  N   7.56908929498944      5.02182593514739      0.86912976938080
  N   2.32316932424469      1.08111741885103      0.23272080789034
  N   3.77206689243770      0.62574461960803     -1.51725421392573
  S   8.27506176663035      2.44518522394710      0.89396033844338
  S   4.86209004883168      1.74462738649376      0.68630825034879
  Cl  6.91583557236176      0.76566475460589     -2.04496629924109
  S   5.56488747479958     -1.76665957685905      0.22378142610172
  S   9.14406325627883     -0.68532321678406     -0.21038118532167
  C   6.32824929808677     -2.84446351663608     -0.91311321586958
  C   9.60989851229043     -1.81081117074926      1.02984590860581
  N   6.31395114342396     -4.16845921285259     -0.64207257406035
  N   6.90423031242802     -2.41888220185180     -2.04028877798961
  N   10.69403442406387     -2.60180774458820      0.80478491145281
  N   8.92763201706071     -1.95792977669971      2.16893146978508
  H   5.80907330815799     -4.48889561578618      0.17729829539303
  H   6.57506813433295     -4.86372897656854     -1.33623247224840
  H   7.48538482852208     -3.03600193036871     -2.60224350422819
  H   7.01714515793284     -1.40717478074276     -2.18936005259915
  H   11.27606466650515     -2.37639936794694      0.00408126358138
  H   11.16139808629046     -3.06712607991340      1.57915585616403
  H   9.23694388518379     -2.60398257159476      2.89021110755208
  H   8.14625755233117     -1.29669254188033      2.37007401310724
  H   7.31323755184408      0.82233155417066      2.71198158969225
