58
Coordinates from ORCA-job DEDLUV-CH3OH_1_1_tpss_d4_lanl2dz_631gpol_Fe2.opt
  Fe  -0.10983447664506     -0.09680414388668      0.04327047959521
  N   1.21714344615651      1.16182781161554     -0.71104238562207
  N   2.95751736598341      1.70213079129704     -1.98640585380999
  C   1.88791103819451      0.87996784635764     -1.83504761054653
  H   1.66482272190018      0.06163629002954     -2.50314329521821
  C   1.90200260138225      2.21393919413332     -0.11733422747653
  H   1.58460254173300      2.63450766638114      0.82571469785552
  C   2.98142018737590      2.55585454287904     -0.89639102125817
  H   3.74683948794673      3.31090296295040     -0.78209154573256
  C   4.00307587748719      1.55815897824573     -3.00496879123479
  H   3.56104298104928      1.12429304813798     -3.90610442375196
  H   4.79202243749994      0.89595983547059     -2.63190858943371
  H   4.41283294508664      2.54467002370566     -3.24057829911311
  N   0.67740578245949      0.12725678918975      1.81989195136368
  N   2.15881017944012      0.09818548476586      3.46869956746921
  C   1.96626036660586     -0.03820434529071      2.12871771051194
  H   2.75856032787572     -0.27600926595502      1.43160814065025
  C   0.01825130476393      0.37565755718518      3.01351714979119
  H   -1.05391660113815      0.51447918030848      3.04196153126884
  C   0.92726383637812      0.36504970007284      4.04500643548139
  H   0.81631300166148      0.50886661360350      5.11093549775900
  C   3.44315390982755     -0.02404802017968      4.16422120479002
  H   4.19342854972835     -0.36545565992140      3.44631815308396
  H   3.35612123013291     -0.75821697798232      4.97182499080022
  H   3.74377131293276      0.94536437804263      4.57756061869644
  N   1.15049456665050     -1.49062963118130     -0.33915278766194
  C   2.30192909719667     -1.75038767353316     -0.54510070532682
  S   3.88501775988696     -2.07091823762186     -0.80292929480110
  N   -1.34882818119662     -1.41874334939300      0.83046185738338
  N   -3.12341506718757     -2.43299129539736      1.70080616756190
  C   -2.64181129468509     -1.29021423088552      1.13629615283605
  H   -3.24078919689532     -0.40287135292719      0.99209553453648
  C   -0.98386051727495     -2.69899596555417      1.21791150100642
  H   0.02858429413397     -3.04429257286584      1.06664521749205
  C   -2.07490936196608     -3.33754446038309      1.75570675367703
  H   -2.20279349813981     -4.32997165103983      2.16561826369824
  C   -4.49617503907338     -2.66444910593547      2.15455031094287
  H   -5.06970194910217     -1.74322745893880      2.01979184945700
  H   -4.95658531351425     -3.46700268876543      1.56766864408411
  H   -4.49696768398810     -2.93854891194887      3.21502050470076
  N   -0.93949696157335     -0.32159267553769     -1.71612286050503
  N   -1.74816262709122      0.02428669195167     -3.76142356603108
  C   -1.19436399869587      0.60111181194610     -2.65616899713901
  H   -0.92096235000960      1.64710260328535     -2.60449114772899
  C   -1.35262539391392     -1.53416236693269     -2.24262169357909
  H   -1.23308540801706     -2.44708715592888     -1.67755626456055
  C   -1.85226272151556     -1.33350919912004     -3.50689937951762
  H   -2.26106910448168     -2.01646967723666     -4.23902073530044
  C   -2.15511587310651      0.71250954322530     -4.98933171049412
  H   -1.87106350565461      1.76550690753869     -4.91140434485901
  H   -1.64795617467244      0.26445465417126     -5.85030636820628
  H   -3.24012962547721      0.63789407569598     -5.12216163049050
  O   -1.56299797882903      1.33223653326703      0.40146978084684
  C   -1.27255590906320      2.71209344426229      0.75152673848545
  H   -0.66177965271868      3.19252688843704     -0.02102141062788
  H   -2.21578053020016      3.25257038293542      0.89490970861758
  H   -0.72066581402409      2.66999469349597      1.69239276495696
  H   -2.03213734161915      1.32464114975873     -0.46143093937292
