53
Coordinates from ORCA-job DEDLUV-oxo_1_1_tpss_d4_lanl2dz_631gpol_Fe2.opt
  Fe  -0.03028308852528     -0.06548522465442     -0.04359267994408
  N   1.31456249425193      1.16466519021779     -0.80565605807171
  N   3.10466699010690      2.00191963003381     -1.78873376244805
  C   2.45568745300437      0.86489354352797     -1.42777851585550
  H   2.83405535239756     -0.12726462485851     -1.62217205675541
  C   1.22351338620799      2.54361078174580     -0.76643142467132
  H   0.37118089946441      3.02231619561959     -0.30663665253095
  C   2.33289616511752      3.07706411396052     -1.37536745871379
  H   2.64115593619404      4.09888120476759     -1.54788076342607
  C   4.38982461212612      2.06698442748279     -2.49204663619737
  H   4.76206305571908      1.04853629008449     -2.62975333272333
  H   5.10876846528432      2.63886588231514     -1.89618092056102
  H   4.25729395657026      2.54340367458278     -3.46936293650955
  N   0.79379539299169      0.15552217629808      1.73959957077808
  N   2.05309055934937     -0.07617639572614      3.53741993635694
  C   1.75549341473551     -0.57288326268087      2.30894394560902
  H   2.24586244460584     -1.43259408589151      1.87770091901726
  C   0.45913755838822      1.15585194371821      2.63346101337926
  H   -0.30566918915825      1.87704719314228      2.38454190162285
  C   1.23660764705388      1.02238622178335      3.75754319333692
  H   1.28675476291375      1.59425290239313      4.67369457103823
  C   3.05633145599505     -0.61798904319132      4.45960773826431
  H   3.56157413775059     -1.45502216260171      3.97075262841484
  H   2.57000898057623     -0.96930897728137      5.37597020923519
  H   3.79039032116310      0.15690764158693      4.70409612272023
  N   1.18308194707357     -1.56416152599296     -0.39040853974589
  C   2.17145845709781     -2.24000222247137     -0.46251903660644
  S   3.52669516738438     -3.12861373100230     -0.54427046513975
  N   -1.33800859265542     -1.32748865417958      0.71742634548354
  N   -3.17531421135595     -2.03536611121345      1.71328421591709
  C   -2.49126587998047     -0.94996303299099      1.26789794176318
  H   -2.82962640572291      0.07310824392819      1.34670480199655
  C   -1.27217269240715     -2.70473493145658      0.80873758998175
  H   -0.42196630631719     -3.25066208159043      0.42821113575821
  C   -2.41212682828527     -3.15752536009505      1.42755977905292
  H   -2.74513623068409     -4.15335751450685      1.68528615371725
  C   -4.48275888772210     -2.01917048059974      2.37578780434356
  H   -4.82125157867868     -0.98271544044249      2.45382903679204
  H   -5.20536377864706     -2.59461404350272      1.78742065229379
  H   -4.39715465112015     -2.44997692117393      3.37905495387619
  N   -0.81548621821150     -0.32201269836095     -1.83152619308907
  N   -2.04954159375481      0.08357120786012     -3.61523175123269
  C   -1.69342643090668      0.51789987434464     -2.37863274067863
  H   -2.06607753789360      1.41379812374766     -1.90338839672320
  C   -0.59567627322070     -1.33632342714661     -2.74379873402460
  H   0.08528411485076     -2.14601322285738     -2.52828255515196
  C   -1.35958220544880     -1.09453486366026     -3.85982351075561
  H   -1.47509027146690     -1.64051870174209     -4.78589096075769
  C   -2.99211711432547      0.74298238767624     -4.52374846701343
  H   -3.36383010938704      1.65088283581154     -4.04165577552539
  H   -2.48494796782824      1.00897717957329     -5.45726622256143
  H   -3.83251350980631      0.07412241403889     -4.73772460734600
  O   -1.05354757486425      1.20622746163077      0.25172899401075
