53
Coordinates from ORCA-job DEDLUV-oxo_1_5_tpss_d4_lanl2dz_631gpol_Fe2.opt
  Fe  -0.07148044051766     -0.06144770276652     -0.05823469084200
  N   1.37770130973283      1.23745686555048     -0.87358432375903
  N   3.21598961322686      2.06407545898330     -1.78241355067275
  C   2.56523699749192      0.93594053264137     -1.40075169279392
  H   2.97972219126433     -0.05604598341836     -1.51242047697242
  C   1.25900143202937      2.61433602264534     -0.91940176376419
  H   0.37222534201176      3.10284064663833     -0.54055377379011
  C   2.39412606634273      3.14324142205092     -1.48241718173394
  H   2.69437854287381      4.16042920282010     -1.69346060581415
  C   4.54389251819113      2.12393094509076     -2.40164781898352
  H   4.94705906823191      1.10934869453518     -2.45658736380378
  H   5.20798868003350      2.74656943405927     -1.79297749213366
  H   4.46726816243395      2.54246122674755     -3.41100297145463
  N   0.84174934739453      0.16426196156311      1.83150704528127
  N   2.13457225207359     -0.06668727768574      3.61005057274349
  C   1.80010887769080     -0.57225300010283      2.39573413857030
  H   2.26821548425377     -1.44713505365587      1.96694925189697
  C   0.54696044030955      1.18308251399434      2.71892743614591
  H   -0.20653849247434      1.91983430455891      2.47847256143057
  C   1.34265332250103      1.05333660784036      3.83011059639114
  H   1.42468977002637      1.63568701867100      4.73756799854907
  C   3.14533696581048     -0.61219356593988      4.52167000526773
  H   3.62904975074108     -1.46329585258551      4.03520214908354
  H   2.67008214850004     -0.94351749187422      5.45129031455751
  H   3.89541694949427      0.15429772412031      4.74309056928045
  N   1.12451007145703     -1.57054886341734     -0.41871720899815
  C   2.17811412052690     -2.14594657030986     -0.41801037392469
  S   3.61190039083927     -2.90283369077625     -0.42398108398925
  N   -1.44903361068733     -1.41790057508247      0.76222537208490
  N   -3.27264858706674     -2.12914829916258      1.78876152130775
  C   -2.59112024063917     -1.04511825895013      1.33876854185707
  H   -2.93016967348496     -0.02318215869064      1.43758086857164
  C   -1.38919139937517     -2.79641262365727      0.84238352329564
  H   -0.54810759127817     -3.34181728257387      0.43879437532449
  C   -2.51709041292760     -3.25378956409469      1.47823303131325
  H   -2.85184685491617     -4.24956299364911      1.73491878972589
  C   -4.56542945601741     -2.11688230097407      2.47976921187191
  H   -4.90826608597678     -1.08193904052978      2.55978922154361
  H   -5.29699353703878     -2.69939944231119      1.90975157991451
  H   -4.45606397195987     -2.54244290599098      3.48304808669194
  N   -0.89851070429431     -0.33488234719157     -1.97115609876886
  N   -2.14173158565881      0.06879001582363     -3.75367959850739
  C   -1.81693035954980      0.47328090056571     -2.49931813313507
  H   -2.24362933572521      1.33369667543217     -2.00256623164126
  C   -0.61824577388196     -1.29982219996510     -2.92031410954481
  H   0.10468638956305     -2.07918705804613     -2.72620692366918
  C   -1.38440510819787     -1.06234922392448     -4.03481334572619
  H   -1.46533728373765     -1.57694041127879     -4.98254753345195
  C   -3.11201191317044      0.70585525490824     -4.64902289131868
  H   -3.53912620278596      1.57400441751053     -4.14014751647366
  H   -2.61233040438649      1.03219208767496     -5.56733547721144
  H   -3.91117742641888     -0.00145852723460     -4.89510778761328
  O   -1.08391975287832      1.20539033141402      0.24428125779146
