52
Coordinates from ORCA-job DEDLUV_1_1_tpss_d4_lanl2dz_631gpol_Fe2.opt
  Fe  0.03559494167733     -0.07874485205074      0.13724614254889
  N   1.28670963146171      1.25186690572116     -0.60440826739449
  N   2.88983634812309      2.04898630823722     -1.91050522955929
  C   2.06927146565577      0.99478303692490     -1.65576182489615
  H   2.08321269578565      0.06036478920912     -2.19915493382332
  C   1.62101066929747      2.52353014727731     -0.16653946739851
  H   1.13963505382917      2.96915258685198      0.69358018513225
  C   2.61174604749381      3.03223404766051     -0.97247799380826
  H   3.13665715065602      3.97757127004701     -0.96659488049470
  C   3.90131234852663      2.11918301173787     -2.96969251004404
  H   3.88936256161271      1.17765116386826     -3.52482226357782
  H   4.89271022203035      2.26662779807171     -2.52845868519334
  H   3.67371192181859      2.94705517469538     -3.64983187618760
  N   0.83887722226113      0.16008131501705      1.90161817018992
  N   2.38076043537413      0.13228385834761      3.49304685612323
  C   2.11089815107003     -0.13100675131940      2.18628214340591
  H   2.81726917374745     -0.55165671471792      1.48488085323706
  C   0.27089141631827      0.62930368966382      3.07606447798261
  H   -0.76943143203407      0.92159912626202      3.12270903113296
  C   1.21913550487945      0.61973166173249      4.07111763656846
  H   1.17714709204123      0.90137262182103      5.11416654358131
  C   3.66431453864513     -0.08099010857789      4.16842554581795
  H   4.36899007072634     -0.50568331165253      3.44889672462305
  H   3.53422686421427     -0.77888022297552      5.00226477903770
  H   4.05374203568464      0.87234309421117      4.54174333049170
  N   1.22346681037008     -1.56080792253877     -0.27316386563833
  C   1.19569612923521     -2.75715396311467     -0.40685986855516
  S   1.17504697880925     -4.37224360681199     -0.59366678116652
  N   -1.34136070434851     -1.22713647257008      0.94187554319779
  N   -3.25150834350393     -2.25006500202348      1.41677990697780
  C   -2.65605068589330     -1.26261399481322      0.69765654340377
  H   -3.18945542251023     -0.61577408360696      0.01534019269128
  C   -1.08596381965920     -2.24045647740045      1.85337832157796
  H   -0.08023568643880     -2.44418573666772      2.18954485701322
  C   -2.26040589427504     -2.88319834270886      2.15251424359180
  H   -2.48073778464592     -3.72484076331011      2.79412679436438
  C   -4.67762213770499     -2.58645503279608      1.41308501129075
  H   -5.18825492303717     -1.93837183820110      0.69578086255198
  H   -4.81006880110782     -3.63184661286429      1.11525553998794
  H   -5.10235465652811     -2.43002526180703      2.41063584476107
  N   -0.85078452083843     -0.22081044454726     -1.59835808932175
  N   -1.75258678008321      0.25866488122362     -3.57083365988306
  C   -1.17211348289978      0.76221031053151     -2.44737420844788
  H   -0.99173963738422      1.81675716589577     -2.28951887271173
  C   -1.23883662251166     -1.40659860108615     -2.20856716979664
  H   -1.05730913492967     -2.36355925563648     -1.73864064329588
  C   -1.79754935362681     -1.12058347385621     -3.43006697256815
  H   -2.20354357512936     -1.75653970480069     -4.20463501447870
  C   -2.24208826175125      1.03152218991552     -4.71531882216540
  H   -2.02133191715285      2.08867053707847     -4.54456914259758
  H   -1.73952514714432      0.69924287861918     -5.62992332436696
  H   -3.32437475620629      0.90003898183388     -4.82257171391148
