58
Coordinates from ORCA-job DEDLUV-CH3OH_1_5_tpss_d4_lanl2dz_631gpol_Fe2.opt
  Fe  -0.08831409198088     -0.19792519077390     -0.00034512605903
  N   1.24189779140508      1.35160659282073     -0.85702627947870
  N   3.11543978650116      1.75155501483459     -1.99378904682408
  C   1.98409025354361      1.00517295235074     -1.91313261943654
  H   1.75882633940658      0.19846004436567     -2.59738474209648
  C   1.94458983579782      2.36971449984642     -0.22982082200279
  H   1.57169654082028      2.83723447873327      0.67101509982054
  C   3.10498798054802      2.62757712359928     -0.91981470430128
  H   3.90688471103995      3.33503848963424     -0.75845617864376
  C   4.22438183069501      1.53216347141457     -2.92709350978425
  H   3.84038099814704      1.02390402135106     -3.81568176979829
  H   4.98564224349399      0.90347096119084     -2.45207356628254
  H   4.65113994717152      2.49731178989501     -3.21606662719158
  N   0.71923391743172      0.22888110603673      1.94757462207506
  N   2.25220052778360      0.14888815544591      3.55177732159417
  C   2.02452080406925      0.15144792459775      2.21167329009538
  H   2.81530465732415      0.06626560224705      1.47637727257953
  C   0.08313584739581      0.28163080690515      3.17615238659967
  H   -0.99502861801756      0.33137809786051      3.24529608771704
  C   1.01881142837964      0.23863602796118      4.18171601777240
  H   0.93284208384964      0.25932670428556      5.25960386388628
  C   3.56247433703946      0.05591812844941      4.20221657320806
  H   4.31765853971459     -0.12597016424322      3.43309113679710
  H   3.56309912934679     -0.77787673520963      4.91186550083438
  H   3.79016684732240      0.98924721925974      4.72934158243004
  N   1.18629675025333     -1.68494628627621     -0.49391451787998
  C   2.38955021356133     -1.69103165606762     -0.52546298322154
  S   4.01631044413720     -1.64072337338499     -0.57468120234731
  N   -1.51529010996061     -1.60731518698679      0.87258518064155
  N   -3.19588706397450     -2.57078623392990      1.96377616274916
  C   -2.69475285749082     -1.40794159548236      1.45861077864243
  H   -3.20169230812420     -0.45581775718174      1.53809834301629
  C   -1.24403899249375     -2.95923304232002      1.00684581372737
  H   -0.32611943022725     -3.37485603349596      0.61329436324318
  C   -2.27655284759221     -3.56939061234756      1.67953229003071
  H   -2.44303086969014     -4.59490324559039      1.98009520818800
  C   -4.46737697429859     -2.73566387312503      2.67155771662244
  H   -4.95144640721664     -1.75845479272665      2.75241078432899
  H   -5.12080925018163     -3.41850044763912      2.11741610468132
  H   -4.28760722476668     -3.13444036026309      3.67587513247161
  N   -1.25004978723167     -0.18305760078876     -1.90745926387646
  N   -1.72664097637190      0.05212989335981     -4.06812959564554
  C   -1.15347971519506      0.61858382245742     -2.97241021061593
  H   -0.66875126347816      1.58602561883985     -2.98838423873574
  C   -1.91740146391532     -1.31600132287161     -2.34582444872521
  H   -2.10966143421771     -2.13861017597282     -1.67127924938269
  C   -2.21659907259016     -1.18720855265613     -3.68029429773961
  H   -2.71543172332942     -1.84225314176578     -4.38151603199060
  C   -1.81424503551344      0.63878930295135     -5.40903804662760
  H   -1.30678589747014      1.60720368685863     -5.40031736895922
  H   -1.32648642511713     -0.02037359265362     -6.13490341155590
  H   -2.86390425979235      0.78101321846384     -5.68770550165895
  O   -1.74445307746273      1.30336246086040      0.45462160568405
  C   -1.49621868233028      2.70339324811730      0.72706483957414
  H   -0.88992551563184      3.15784379156498     -0.06608884100367
  H   -2.44714624708566      3.23995518735281      0.83559266977215
  H   -0.94698504689025      2.73075820853148      1.67101673201997
  H   -2.14465111654029      1.21268332130961     -0.43804027893775
