50
Coordinates from ORCA-job AZAYUV_1_5_tpss_d4_lanl2dz_631gpol_Co3.opt
  Co  0.03899911601614     -4.15660002306286     -2.70442620041304
  O   0.45112600496829     -2.35609165347758     -2.23770131604861
  O   -1.83618141021205     -4.17722702596292     -2.37643780595575
  O   -1.11983129119524     -8.55550896459325      0.13404890269504
  N   1.72308863775827     -4.16265766318847     -3.87862861164644
  N   -0.20432107401284     -5.98718640904772     -3.60593140490716
  N   0.74235834911273     -5.07478788054659     -0.96315374438041
  N   -0.21487095324237     -8.57138724454382      2.24173556775631
  C   1.40607319034108     -1.54279865420825     -2.54748587257765
  C   1.33963383605168     -0.16878561651696     -1.92331133668523
  C   2.44350159599705     -1.90090996291478     -3.42199482366902
  C   2.56876476685355     -3.15051926901951     -4.08701380344129
  C   3.71812300343574     -3.29372645701464     -5.06931655087294
  C   1.88747655144491     -5.38765405015746     -4.67252604880654
  C   1.10054269533778     -6.51714712727343     -4.00024355487659
  C   -1.31720476426788     -6.69142631686481     -3.79145228900093
  C   -1.29013564018053     -8.07809646617770     -4.40974703593542
  C   -2.58460357934295     -6.18659235421342     -3.38301426436217
  C   -2.79890425953532     -4.97764689919379     -2.70214877162056
  C   -4.18343323480134     -4.55437901873091     -2.27262001892617
  C   0.05887026530379     -6.13136066887016     -0.48764437130973
  C   0.47354543428588     -6.86073186127415      0.63294787096140
  C   -0.37026450772611     -8.06118814554043      0.98145769093368
  C   1.65539633618808     -6.46536341600212      1.27786491087218
  C   2.36385388040852     -5.36119170067348      0.78643379519109
  C   1.87705392046391     -4.68939095257967     -0.33567940476724
  H   1.26575415187602     -0.26103601209214     -0.83169845323138
  H   2.21287769812131      0.43952811691838     -2.17935103520614
  H   0.43104780369208      0.34340254814585     -2.26775012911906
  H   3.19470194100653     -1.14704753928909     -3.64000759341824
  H   4.27081875932038     -2.35458339240096     -5.16267580548638
  H   3.34946944165400     -3.57875010300150     -6.06422069505562
  H   4.42136867787879     -4.07356577727360     -4.74363533279528
  H   2.94388051349983     -5.67543199535420     -4.76527141702968
  H   1.49427245814795     -5.22267540209894     -5.68802549579779
  H   1.03769217824102     -7.38000830261802     -4.67294140259067
  H   1.62794354701196     -6.83262852995110     -3.08665883233512
  H   -2.29891217653548     -8.49763152205320     -4.45672717694712
  H   -0.88279346160063     -8.05254415966383     -5.42983849632239
  H   -0.66535660614823     -8.75657990090336     -3.81256670926692
  H   -3.45357934535279     -6.80870137976018     -3.57618610470008
  H   -4.41804217749867     -3.57519002536099     -2.71015015180096
  H   -4.21015844432026     -4.43871526226088     -1.18070481791350
  H   -4.94492466356030     -5.27914163451854     -2.57750175192277
  H   -0.84190695150803     -6.42470513478927     -1.01910408655764
  H   0.17535110096131     -8.01880974063574      2.99793726727496
  H   -0.83338557909108     -9.33425134667666      2.50455660289617
  H   2.04111575936066     -7.02266647856683      2.12995156562350
  H   3.28730920743086     -5.03235272764936      1.25677030764954
  H   2.39099929796198     -3.83285849649671     -0.76471176415410
