52
Coordinates from ORCA-job AZAYUV-OH_1_2_tpss_d4_lanl2dz_631gpol_Co3.opt
  Co  0.04135171371968     -4.35025015831336     -2.91707226280030
  O   0.24079442726700     -2.66434586964698     -2.09431045095182
  O   -1.64746181459369     -4.34335297697328     -2.06079247720172
  O   -0.94145012309759     -8.55310875546206      0.26760071054249
  N   1.74057731553137     -4.38194984209586     -3.74745985898745
  N   -0.20035955226512     -6.05651702819396     -3.66311884140500
  N   0.80591730546077     -5.17020638749699     -1.23273725834898
  N   -0.01587337608670     -8.30778864404831      2.35219609086346
  O   -0.74097394507711     -3.53840231623024     -4.32962082692569
  C   1.11558389639224     -1.79533738912081     -2.46512571218578
  C   0.94069865330012     -0.42448146770156     -1.85109863073134
  C   2.18489254705625     -2.04939820460425     -3.34569389477202
  C   2.49575575919448     -3.29956122882273     -3.92859798506570
  C   3.74475595324386     -3.40238585547776     -4.78239309827448
  C   2.02670325243550     -5.63301510052802     -4.46775031359707
  C   1.08126648126503     -6.71087086588693     -3.92512731848976
  C   -1.38643710846018     -6.55687559912596     -3.99206718773431
  C   -1.49025330074859     -7.87038018257061     -4.74274713122830
  C   -2.58283067931576     -5.89758889115115     -3.61413092140283
  C   -2.66503493576972     -4.88889230942324     -2.62806479300398
  C   -4.00842468401712     -4.41707047593838     -2.12457484982874
  C   0.15938771764264     -6.18685360549711     -0.63721153155029
  C   0.60770052338487     -6.77036161050087      0.55364395582507
  C   -0.19846057161412     -7.94705982067137      1.04493375369926
  C   1.78022935094318     -6.26889871478334      1.13758889002057
  C   2.44884588899008     -5.20805509303385      0.51487602152335
  C   1.93411661979964     -4.68168053237255     -0.66951449938402
  H   0.82076976052367     -0.51658195249724     -0.76460487912169
  H   1.78471582285833      0.23547657779866     -2.07500874356544
  H   0.01834260196969      0.02363412510608     -2.24488978092652
  H   2.85709620499479     -1.22467164026598     -3.56205418369123
  H   4.24203879300280     -2.43148836693908     -4.85737181632854
  H   3.49732803825384     -3.74531750428793     -5.79675112713480
  H   4.45625610898277     -4.12340039808785     -4.35558029949565
  H   3.07435319898373     -5.93564167425588     -4.33884900204146
  H   1.84774781993575     -5.49071477628877     -5.54582681023806
  H   0.98630844655665     -7.54210426707432     -4.63236948283586
  H   1.46836448608327     -7.11044762083903     -2.97697385157400
  H   -2.53501971718027     -8.08742903725895     -4.98178797143007
  H   -0.91960070846072     -7.84432209312113     -5.68090079623870
  H   -1.10204851333035     -8.69632852970084     -4.13112592282662
  H   -3.51579863117468     -6.30573076896001     -3.99075028410797
  H   -4.15277936014609     -3.37483447939400     -2.44105417053137
  H   -4.01901472264375     -4.43119240415542     -1.02791373372836
  H   -4.83046043718948     -5.02848560514537     -2.50933468757337
  H   -0.73643638635697     -6.56401276206018     -1.11922333630545
  H   0.36124717479499     -7.66146438967859      3.03757479358743
  H   -0.61177957535333     -9.05132467601590      2.70656388831708
  H   2.18855633693692     -6.71141691800723      2.04451815470051
  H   3.36422900030626     -4.79778410037628      0.93368753975704
  H   2.41739483099933     -3.86298927040801     -1.19387230163356
  H   -0.42167788792821     -3.98328854241494     -5.14529077363781
