50
Coordinates from ORCA-job AZAYUV_1_1_tpss_d4_lanl2dz_631gpol_Co3.opt
  Co  0.09098404148953     -4.32285441461364     -2.97791473661013
  O   0.22368787368545     -2.55499400508580     -2.36918645478379
  O   -1.68126343702337     -4.13966104430226     -2.42271386866482
  O   -1.20249454158960     -8.36896281065825      0.09165219210988
  N   1.73629280781912     -4.25898256852395     -3.91013519365250
  N   -0.19610102103946     -5.98415078259772     -3.82567417490948
  N   0.70419283351084     -5.07348441801874     -1.38284612645007
  N   -0.31573515686757     -8.14434793812967      2.19602168180812
  C   1.26887962495110     -1.79217769974112     -2.41126579720042
  C   1.11204013925907     -0.46713383765237     -1.70102108920099
  C   2.45993012553816     -2.12017223276073     -3.07371380261564
  C   2.63955913848220     -3.27896469093095     -3.87018455809309
  C   3.89817314859458     -3.36992471844106     -4.71170576434934
  C   1.92400204275938     -5.40685516559878     -4.82162532548083
  C   1.07722673471571     -6.55576285404475     -4.29419999393657
  C   -1.30221500168009     -6.72980468940534     -3.76870102238997
  C   -1.31126198522335     -8.12959704602383     -4.35127473047032
  C   -2.49200419239580     -6.25914709489783     -3.16380906388313
  C   -2.63728979395346     -5.00501650915466     -2.55722951170631
  C   -3.96581494517143     -4.56148913485960     -1.99031063176637
  C   -0.00000403749885     -6.06214960810932     -0.79992401771283
  C   0.41134954127817     -6.64882093081717      0.40144102951965
  C   -0.45371596434560     -7.78998817548008      0.88291438311871
  C   1.59237007853969     -6.19173528214983      1.00289666473526
  C   2.31098029318883     -5.16091777911598      0.38551811561576
  C   1.84406933975635     -4.61691531318679     -0.80920197196328
  H   0.85420405726064     -0.63902137248339     -0.64771822582715
  H   2.02240659650827      0.13780157248162     -1.76124284209412
  H   0.27940664925826      0.08862662190045     -2.15178360774553
  H   3.26851490062105     -1.39571031876909     -3.05376011688009
  H   4.50272406639503     -2.46667065378881     -4.59149817158026
  H   3.64866039677934     -3.47790874776013     -5.77608751173727
  H   4.51071948226384     -4.23673089805649     -4.42560299444084
  H   2.97653093980151     -5.70791877696840     -4.88677059927443
  H   1.58559237954517     -5.11664636024433     -5.82806238067347
  H   0.92396518482691     -7.30485513725264     -5.07898174960805
  H   1.58043187124284     -7.04765184146388     -3.44576742618463
  H   -2.29782844885477     -8.58527550208006     -4.23129443475747
  H   -1.06680154843701     -8.11693434848130     -5.42228313099305
  H   -0.57428264045481     -8.76700269824494     -3.84336856433013
  H   -3.35515809455068     -6.91677368733474     -3.17961497949530
  H   -4.25592556132415     -3.60712125573874     -2.44790089400426
  H   -3.86675173048736     -4.38874013176552     -0.91027770223899
  H   -4.75021048634494     -5.30372752211950     -2.16834284385675
  H   -0.90496326393106     -6.41081040486548     -1.28956425244159
  H   0.08190921782533     -7.51401845345971      2.88452128843057
  H   -0.94294372652983     -8.86506156114666      2.54369094882911
  H   1.96801081460127     -6.64515743633743      1.91820236488345
  H   3.23483189475819     -4.78151157721430      0.81454999301712
  H   2.36531936244734     -3.81446876450600     -1.32534839806423
