76
Coordinates from ORCA-job BOTBIX-CH3OH_0_5_tpss_d4_lanl2dz_631gpol_Co3.opt
  Co  12.36464731938543      9.38742175506846      4.90893897780716
  Br  8.93672191546544      3.34874414528296      7.42732864280221
  Cl  19.39033924429256      6.15303100204736      1.65563618014006
  O   12.77424751748958      7.82594587712781      5.92617919661217
  O   14.03250301070881      9.81319087104508      3.94959328603028
  O   13.33729021754656     10.68292820056683      6.45930524336060
  N   11.59148265907798     11.22145758685225      4.16100802884510
  N   10.59416747694204      9.53362297417778      5.93471470813391
  O   11.70808882276570      8.32545213603173      3.38595001629623
  C   11.90628417453395      6.90652812780794      6.23308126448316
  O   13.71972290555472      5.40933285612218      6.20054359295172
  O   9.63095255032564      9.22952165611961      3.22609604200188
  C   9.93664802378008      8.48067626743753      6.33276469421265
  H   8.87668712720082      8.57591866132754      6.59512910844411
  N   14.64696577244807      9.76714627875759      1.67752154080679
  C   10.05014287503318     10.82667842845527      5.94875366271333
  C   12.38448580502953      5.55669692371875      6.40945725232268
  N   14.20994659121808     10.28445830640562      0.46222778913758
  C   10.15140619009457      4.82245159886948      6.93560382324759
  C   13.84218087686492     10.16642905922745      2.71997191463041
  C   9.63829832453417      6.09987191289424      6.79208305027357
  H   8.58166289592951      6.29897993731554      6.95104953962610
  C   11.76489603606482     11.58311304589782      2.89489996699884
  C   10.50426067432669      7.15915443392479      6.42818329512941
  C   10.59718177845324     11.74313053086812      5.00842601612295
  C   10.83699828111608     12.52660066490193      2.20413086651694
  C   12.83804303775431     11.00600944740561      2.14843687437067
  C   10.17365480552985     13.08342728691956      5.04821624003638
  H   10.60851534976673     13.80573066372177      4.36477037560590
  C   13.13861591961076     11.02190730461107      0.74190395285345
  C   15.76623343926619      8.90287661258506      1.69992029028833
  C   10.58257362572123      8.57979650256433      2.75613338808088
  C   11.51280509119493      4.52297577953818      6.75018524862454
  H   11.86346031597137      3.50377038159903      6.87331608441367
  C   12.41259145185362     11.66262588195655     -0.40589805620139
  H   12.82950873601281     11.27293151097691     -1.34137651948295
  H   12.51886944206804     12.75516018040209     -0.40046251377227
  H   11.33782484620830     11.44494862081071     -0.36821745651853
  C   11.30439459145365     13.77371085437429      1.75449151241596
  H   12.34897812923106     14.04257623041835      1.90928685851746
  C   9.49115592842076     12.16530958887953      2.00947117710647
  H   9.14991261699446     11.18980121841543      2.35504409307349
  C   8.62678715973014     13.05551970988918      1.36296440672221
  H   7.58752952389837     12.77239575589889      1.20203666737685
  C   8.64703245694455     12.57792099197621      6.87466796048189
  H   7.90484104203982     12.90447786034544      7.60068426300458
  C   9.08064128226612     11.24991626376233      6.87167137958417
  H   8.70269809987266     10.54772846111829      7.61286359767515
  C   14.25547359942152      4.08448876531284      6.30550943952087
  H   15.31979741084315      4.18581128323600      6.08147467118555
  H   13.78111705469512      3.41219717566673      5.57631815067822
  H   14.12284612126970      3.68498721263171      7.32167316335097
  C   17.98025023420472      7.21848965283375      1.66940439618624
  C   15.99934785015951      8.03945461333264      2.78625287138916
  H   15.31395219675337      8.01995305277201      3.62622861538233
  C   9.20254894785245     13.49216565326117      5.96780203484685
  H   8.89166507214018     14.53537347382882      5.98534941236217
  C   16.63627111120665      8.90871741630923      0.59598368046597
  H   16.42445647804770      9.57047653815850     -0.23828366925586
  C   10.42801835799124     14.66594696244215      1.12609338515585
  H   10.79093123188721     15.63574638697194      0.78845858467827
  C   10.54201797409424      8.00241998920910      1.34294621245049
  H   9.56128643966413      8.17026822935682      0.88639439321537
  H   10.76596509272565      6.92845464049769      1.36693534227345
  H   11.32137363092464      8.48224496626442      0.73513545120610
  C   17.11577625795173      7.19901049470580      2.76793421298917
  H   17.30441746674994      6.52625650363447      3.60063651775185
  C   17.74650539910675      8.06306984808294      0.57886754093759
  H   18.42527081370360      8.06231357374970     -0.26998903352957
  C   9.08802490802738     14.30596473273730      0.92715528576847
  H   8.40697633090721     14.99663562023399      0.43182123493078
  C   14.50979825160847     10.06489194345922      7.04945348814898
  H   15.16321010290692      9.65428267851254      6.27033314916633
  H   15.04902645940245     10.80150140665070      7.65958647385946
  H   14.13490647859400      9.25540245434850      7.67787765822720
  H   13.64985276916635     11.32652438537726      5.78848981275275
