70
Coordinates from ORCA-job BOTBIX_0_3_tpss_d4_lanl2dz_631gpol_Co3.opt
  Co  12.08737849622695      9.39980036511931      4.81899956767009
  Br  9.68236296827208      3.37812026885339      8.32281699440942
  Cl  19.23818475669386      5.85231211853016      1.88980112635943
  O   12.76191619476285      7.86103947027777      5.58452481635028
  O   13.78526849994559      9.50612980420565      3.99677585783786
  N   11.50339275855157     11.10615982480972      4.18551557666671
  N   10.55850011439235      9.45408791105532      5.91209046088424
  O   11.34058948600899      8.41163824204738      3.25245407486188
  C   12.04642548929065      6.95009161026471      6.18181147460870
  O   13.95357210170796      5.58746458029966      5.96646279209643
  O   9.34108644664085      9.49807718084272      3.26230141494184
  C   10.06394384636078      8.40956914975390      6.53986542041145
  H   9.10131100628232      8.51744772116687      7.04341475631323
  N   14.69718170196241      9.71953447272630      1.84772643527873
  C   9.96356057870119     10.73968754518186      5.95357820354673
  C   12.67151622523381      5.67240958674569      6.41516931490898
  N   14.42610400139497     10.39977695732711      0.66038469762511
  C   10.64111207650900      4.86705375297142      7.44969481037808
  C   13.77580427591115     10.01964763322386      2.81776237418136
  C   10.00127050407636      6.07405564685973      7.27605813205791
  H   8.98070398948698      6.22702010515604      7.61658400948053
  C   11.82018338547169     11.57000183840437      2.96798501254300
  C   10.69890357841222      7.13539328508226      6.63190226241669
  C   10.51368538748629     11.66289877524220      5.03386976108863
  C   11.03923325316577     12.66321950605109      2.32464441098378
  C   12.87949748383479     10.97483855287175      2.24292621825339
  C   10.10410129190371     13.00515298830239      5.08634460988072
  H   10.55796913580626     13.74474051800744      4.43752614248894
  C   13.35288589410372     11.14531817121379      0.89250764765028
  C   15.76882290200649      8.79280490182501      1.89018139946215
  C   10.16294266096509      8.70899479541103      2.75909073279453
  C   11.96939268045160      4.64011411742288      7.03054994654403
  H   12.42209467618917      3.66660011004907      7.18650552211085
  C   12.78784918709116     11.94281603384859     -0.24696716278024
  H   13.27848793004985     11.62215020264424     -1.17262731036840
  H   12.95239084070409     13.02025133146334     -0.11738992546650
  H   11.70494886365466     11.79064239704068     -0.33750936022180
  C   11.64798096697776     13.89464206424965      2.02816453615592
  H   12.69469115324810     14.05124818909798      2.28555097878004
  C   9.68626097147263     12.44286230972947      2.00454087220583
  H   9.23183185623417     11.48350437289180      2.25207655788247
  C   8.95561811676242     13.46069755627574      1.38252018324461
  H   7.91118504490280     13.29116671699090      1.12545282467770
  C   8.53609535597450     12.46493315879643      6.86778010362045
  H   7.77547660284925     12.77741357501039      7.58041843881959
  C   8.97177133848581     11.13619793576463      6.85875375749105
  H   8.56537431540446     10.43134190489291      7.58044673993371
  C   14.61473179253153      4.32727230715554      6.12651655308790
  H   15.61084254944073      4.46780236300461      5.70034122630551
  H   14.08378456112738      3.53307188033943      5.58162465273515
  H   14.69806476990655      4.05728272227771      7.18958463822504
  C   17.88901318719669      6.99360442283385      1.88613649803547
  C   15.86753574008068      7.83460487437444      2.91666855308744
  H   15.12198462572949      7.78553410614261      3.70322224469868
  C   9.11443367268964     13.39564041903343      5.99512272066769
  H   8.80885727508435     14.43959871961793      6.02956290316323
  C   16.72653287313342      8.84113994442619      0.86304700199584
  H   16.61916598955445      9.57987012919325      0.07481541899492
  C   10.90234949750032     14.91362844937875      1.42428279352929
  H   11.37100837369536     15.87192304512991      1.20583339447049
  C   9.87586070470258      7.99680346641906      1.43556513329585
  H   8.83903020784638      8.16927161151746      1.12998622190385
  H   10.06873499919830      6.92139575035720      1.53138162550569
  H   10.55601806876640      8.38252077428594      0.66356558489732
  C   16.93768364147928      6.93584400246490      2.90895209029893
  H   17.02512309183979      6.19140711273127      3.69608746214739
  C   17.79036239809730      7.93759188842572      0.85886369386978
  H   18.53559900828595      7.96810194640341      0.06838214256935
  C   9.55658254275934     14.69561252476674      1.09795182879469
  H   8.97834003733195     15.48630828372136      0.62216840665976
