71
Coordinates from ORCA-job BOTBIX-oxo_0_1_tpss_d4_lanl2dz_631gpol_Co3.opt
  Co  12.28582059605115      9.72560792867387      5.14631212042455
  Br  9.53645036226206      3.26879986257670      7.30601028266443
  Cl  18.94636539151443      5.55154183798335      2.03522951802412
  O   12.94091652802886      8.08956359914063      5.82783489279642
  O   13.94268581371363      9.75208134089303      4.18209371817526
  O   12.91845294123592     10.68118611752322      6.40418811497990
  N   11.54766639774273     11.28631280610854      4.29960584079116
  N   10.61229787629430      9.61900270161827      6.00779833635948
  O   11.63712659203590      8.62546640304842      3.68029288239144
  C   12.14655487439179      7.11238872182976      6.12719190122837
  O   14.04029257717714      5.74706775976846      5.82673379544639
  O   9.53835539614946      9.48193122163696      3.41681130774945
  C   10.09586501615475      8.51233864312145      6.46249733097189
  H   9.07666788458116      8.54735152311037      6.85442694346175
  N   14.63429979332322      9.67072327889215      1.94770545308038
  C   9.99618672403255     10.88726043295502      6.04548334573175
  C   12.72533437459924      5.78611162127295      6.16168756871363
  N   14.29853829739019     10.24658840088942      0.72329291931818
  C   10.59763964525353      4.85688824602214      6.82343171531138
  C   13.81684933181384     10.11842453904833      2.95899995644019
  C   9.98890307681421      6.09795431794506      6.80855047087476
  H   8.93603365537833      6.20851595402701      7.05402903478364
  C   11.84390348947351     11.66207123518244      3.05813714067478
  C   10.75119998387992      7.23838677178367      6.44985773230477
  C   10.53304681148014     11.81793969663504      5.12295567569603
  C   11.01526808339328     12.68589045036716      2.36019565709860
  C   12.90047269476516     11.03504241709563      2.35316387816160
  C   10.06648992604724     13.14053444642120      5.13901649442741
  H   10.49914587176568     13.88274784096156      4.47787798766386
  C   13.26882219366244     11.05135518223441      0.96213584510123
  C   15.66139284208158      8.69749274931431      2.00240081916998
  C   10.47383944159736      8.73926604620324      3.07782502147537
  C   11.95653482406178      4.67566403649194      6.50262196078014
  H   12.38347218339912      3.67839688515903      6.51418110965915
  C   12.64532476405354     11.76354206374019     -0.20225666181206
  H   13.09360999659748     11.38190175112396     -1.12620629491768
  H   12.80656446137071     12.84816416153230     -0.15255331556962
  H   11.56010679873216     11.60149923539732     -0.23128444554809
  C   11.57789572010811     13.91875701624707      1.98979833132081
  H   12.62002547086105     14.12655592328867      2.22809434613649
  C   9.67057741908496     12.39697402960401      2.06290980388144
  H   9.25729741762401     11.43363699708416      2.35982435463133
  C   8.89852550039950     13.35004846460554      1.39046241076974
  H   7.86006889423519     13.12751935459278      1.15011950230580
  C   8.49430078845797     12.56534115908859      6.91154214057284
  H   7.71615279532166     12.86337243057292      7.61110248606506
  C   8.97847691112541     11.25320819599671      6.93189048860178
  H   8.59956355972190     10.53845963385121      7.65927678605767
  C   14.66787171013132      4.45810615567041      5.79554412590736
  H   15.69925930096839      4.64615255611892      5.49060196889296
  H   14.17517736091382      3.80182526168594      5.06407103667743
  H   14.65083729657133      3.99002863479553      6.79020225041108
  C   17.66968610909520      6.77359035097747      2.01853601109401
  C   15.82806690416911      7.87692909786849      3.13488621809940
  H   15.17515134225023      7.98119984492379      3.99463997109319
  C   9.04610051195870     13.50182635288895      6.02662537143790
  H   8.69608713689234     14.53222227151927      6.03794533908558
  C   16.49668265103619      8.54655800502851      0.88156797010502
  H   16.33892427651380      9.18183790111947      0.01563599118573
  C   10.79129278697315     14.87244051218835      1.33309978551952
  H   11.22338360601721     15.83244702996372      1.05512092760002
  C   10.38487031404599      7.84246279091937      1.84315828467229
  H   9.36103022586801      7.83657304871994      1.45670407356126
  H   10.70639472350915      6.82258893280633      2.08559515635381
  H   11.06683071357262      8.22653653739200      1.07207181095777
  C   16.84180704155621      6.91611371274352      3.13600797286879
  H   16.98596123536751      6.28293627693543      4.00733108053670
  C   17.50355591236032      7.57981468172167      0.88782064176412
  H   18.15333571259725      7.45631242216422      0.02545230425563
  C   9.45236246511830     14.58733203328875      1.03090733038220
  H   8.84294867327343     15.32759015589881      0.51467767311088
