70
Coordinates from ORCA-job BOTBIX_0_1_tpss_d4_lanl2dz_631gpol_Co3.opt
  Co  12.10690774192763      9.46306695551743      4.86045003005590
  Br  9.64054698406545      3.31485729493749      8.04209823096584
  Cl  19.08653531876164      5.70437925075932      1.86075553508054
  O   12.79997849409703      7.94862501199472      5.66652900318773
  O   13.80049814081649      9.57488650160087      4.03191633348064
  N   11.51782607743935     11.15954934327551      4.20846684031972
  N   10.56675363305436      9.48978137933608      5.91825376765397
  O   11.44809789507241      8.48580038103789      3.43629430335099
  C   12.06739201008354      6.99813708597978      6.16979635784544
  O   13.98556356634585      5.64965927304790      5.95491304208790
  O   9.38113406463348      9.47347264504294      3.31578230060100
  C   10.06054990006014      8.42684005914352      6.50875330019920
  H   9.08721997636756      8.51959122435021      6.99500795975844
  N   14.68004648225806      9.72656705802985      1.86156097359100
  C   9.96263694534720     10.76661949660250      5.95810334920768
  C   12.68649732853367      5.70958912431285      6.36000171860937
  N   14.41121959225198     10.40489001332877      0.67148227846023
  C   10.62182814785580      4.85035381831245      7.27853677073279
  C   13.78381251357093     10.06394671794048      2.84446011719222
  C   9.98205461699252      6.05996893968730      7.13827592416772
  H   8.94720154007659      6.19213058884152      7.44269945136262
  C   11.83491976019705     11.62226671559032      2.98966911167383
  C   10.69998255750171      7.15533726821115      6.57486214009360
  C   10.50985424571051     11.69890681502966      5.04119169741677
  C   11.04841481204258     12.70517214995142      2.33584285949047
  C   12.89671757625306     11.02728120685459      2.26791431638568
  C   10.07058418555233     13.03390025646375      5.08457838935114
  H   10.51985749258162     13.78071203458153      4.44065487702256
  C   13.35410495172309     11.17112150627366      0.90844209770126
  C   15.72500627952874      8.76978603358600      1.89637661348074
  C   10.25023091964325      8.69411665533925      2.91563055010718
  C   11.96760750856016      4.64801208993943      6.89902360644767
  H   12.41743351846677      3.66859448136885      7.02364933271170
  C   12.79508933543907     11.97207104912997     -0.23158108769539
  H   13.28097055504021     11.64543832746857     -1.15775056543201
  H   12.97020111307016     13.04812971698251     -0.10360419677024
  H   11.71025934180573     11.83161195956190     -0.32105369694982
  C   11.64512864553177     13.94084059486149      2.03392097357042
  H   12.68796629332366     14.11083480202941      2.29818846151012
  C   9.70086436641652     12.46828770116914      2.00534281418849
  H   9.25382320051660     11.50719393904923      2.25606994136518
  C   8.96270568830007     13.47178278561010      1.36962156216652
  H   7.92232887418036     13.28848204476668      1.10561975997664
  C   8.49368789498376     12.46888129406067      6.85096783066944
  H   7.72163669914237     12.77098833846186      7.55587060451313
  C   8.95105921402422     11.14914586492241      6.84971315650399
  H   8.55112099014193     10.43838130662124      7.56944247196462
  C   14.64475534559267      4.38536659058625      6.08284510461873
  H   15.65617487561853      4.54608450202124      5.70220730600763
  H   14.13812249084956      3.61485610493335      5.48305228645975
  H   14.68795855014414      4.06723279288331      7.13501450342534
  C   17.78005854013827      6.89536230037089      1.87140843439265
  C   15.83487254416681      7.84538926500160      2.95284088087118
  H   15.12270103598846      7.85255889986285      3.77120963981522
  C   9.06561502056423     13.40827366186026      5.98079772255615
  H   8.74317580566342     14.44735401897415      6.01158530003264
  C   16.64122542915439      8.74800512599155      0.83079434869493
  H   16.52707431997726      9.46253802727055      0.02163146860108
  C   10.89292074391151     14.94644339636294      1.41551467911918
  H   11.35249202543706     15.90820554925563      1.19299405599640
  C   10.06594831751670      7.84244737327801      1.65664508988943
  H   9.00077322322402      7.62946653156078      1.52105051632075
  H   10.64334244455529      6.91444289994335      1.70952753877366
  H   10.42327554712545      8.42197403206195      0.79414303644762
  C   16.87134922501453      6.90834209699731      2.93354905497906
  H   16.96597532205639      6.18982484464516      3.74361584654862
  C   17.67218714171224      7.80697707062122      0.81645163205961
  H   18.38473138602687      7.78355262753571     -0.00392270171347
  C   9.55254336137366     14.71096727937621      1.07989715326666
  H   8.96937031489824     15.49124590764035      0.59310589346206
