51
Coordinates from ORCA-job BAWSOH-oxo_1_3_tpss_d4_lanl2dz_631gpol_Fe2.opt
  Fe  -0.00231629041269     -0.01847068429158      0.02298456868332
  Cl  -0.44556325043939      1.68416958862129     -1.53924677243346
  P   1.25200076977152      1.58838045886150      1.09648208915730
  P   1.94452750738991     -0.45330740595449     -1.14309127869938
  C   2.61718308125711      2.06585009249061     -0.06257033349461
  C   3.25265354521709      0.79048905142128     -0.64304024000549
  C   0.56166515608312      3.19986698754655      1.63896551273976
  C   2.09041859021532      0.89787636974838      2.57717749246388
  C   1.89775709974624     -0.37760075388902     -2.97689051973771
  C   2.74127730590378     -2.05778616780320     -0.73692253687925
  H   3.36365355631682      2.68572431803815      0.45402282911022
  H   2.15588855965261      2.66622291191995     -0.85760899098312
  H   3.89505674934368      1.02135249387126     -1.50348634389278
  H   3.88402595605039      0.30110842518274      0.11211310006263
  H   -0.11200181027203      3.06391500636963      2.49374455572268
  H   0.01016469913160      3.64970161203064      0.80497992817409
  H   1.37280586172731      3.87526800096393      1.94330627554726
  H   1.34040145214707      0.64979731112206      3.33774646209941
  H   2.81739007335470      1.60238784507573      3.00259510349760
  H   2.59319385199735     -0.03718507195999      2.30430771032867
  H   1.47708630752462      0.58697257457093     -3.28331026782574
  H   1.25671847415853     -1.17590059095122     -3.37149405442859
  H   2.90569627482783     -0.49879398474462     -3.39591837083220
  H   2.70153698142466     -2.20010651770320      0.34966945898419
  H   3.78537903785243     -2.07245762364395     -1.07739304712678
  H   2.20851109437522     -2.88934421426931     -1.20925201966664
  O   0.28698614439811     -1.21761191254012      1.14006656175873
  P   -1.26335384697582     -1.54157854904147     -1.15212554432845
  P   -1.96891196387976      0.52679945434961      1.10909254129475
  C   -2.68391590161771     -1.92772653557041     -0.02344278906480
  C   -0.55158533190397     -3.19928420012153     -1.49808863291072
  C   -2.03034220657408     -1.01208011871918     -2.73086342640658
  C   -3.30276555198901     -0.60801963772361      0.46785087827695
  C   -1.87256186103576      0.15228525336817      2.90442017188235
  C   -2.75716552673678      2.18008813962007      0.99343124843715
  H   -3.42774138285811     -2.55926261824941     -0.52925001606082
  H   -2.26559357549282     -2.49720886367428      0.81845313921436
  H   0.17965637218887     -3.14825546220555     -2.31390585896173
  H   -0.05660051777331     -3.57044832530659     -0.59295209085581
  H   -1.34364758880784     -3.90163651479157     -1.79111154316617
  H   -1.24846933420194     -0.78620873028798     -3.46542667514954
  H   -2.69132325451605     -1.79446006761100     -3.12790962331012
  H   -2.59523575526079     -0.08632329016890     -2.57410674444862
  H   -4.05724600179857     -0.78131318927921      1.24779670668943
  H   -3.80249699656764     -0.08676666384998     -0.36138358551735
  H   -1.45908626474326     -0.85472475207960      3.03272295268232
  H   -1.19465625510579      0.86179249694517      3.39631651735455
  H   -2.85791656653144      0.21946071128809      3.38431954714998
  H   -2.76185518051936      2.50334277559460     -0.05411829420581
  H   -3.78732071513447      2.12760801567623      1.37170003453326
  H   -2.20646157090753      2.92060255175441      1.58194421454746
