50
Coordinates from ORCA-job BAWSOH_1_5_tpss_d4_lanl2dz_631gpol_Fe2.opt
  Fe  -0.06523142529902      0.24070672599772     -0.20966250402935
  Cl  -0.20410467228371      1.97724748071877     -1.64236888285275
  P   1.48022159959510      1.51230579877716      1.28822279548745
  P   2.13724876895813     -0.45607775372450     -1.17898376709615
  C   2.87540784118164      2.03349938642989      0.15701862194349
  C   3.20420979617580      1.07361642511118     -1.02841121730542
  C   0.92470879841501      3.13679551117042      1.96441318709102
  C   2.33975795942490      0.73612843861287      2.73348241787108
  C   2.23185069988650     -0.80040483854697     -2.99000854016962
  C   3.18336616695780     -1.80229022457674     -0.45406543366104
  H   3.77197123483825      2.21674637995751      0.76459933599267
  H   2.56328800600471      3.00202468493717     -0.25309556313491
  H   3.05887887469265      1.61748922749993     -1.97000121648324
  H   4.25815049990024      0.76613652288213     -0.99562571629676
  H   0.23340909501604      2.98075781162679      2.80183294501016
  H   0.40125894701963      3.68940717062913      1.17422783106359
  H   1.77430462362388      3.73453810262675      2.32192170841702
  H   1.60561073011194      0.48088713113308      3.50864082961411
  H   3.08699181020792      1.41608346184458      3.16502957760515
  H   2.84138388169719     -0.19020318796422      2.42714888405354
  H   1.64837761420369     -0.04234809303375     -3.52733181209781
  H   1.80977664881718     -1.78911425731046     -3.20913337724416
  H   3.27033759873582     -0.77862346228041     -3.34751728921453
  H   3.33032118607775     -1.63646679524445      0.62048845060296
  H   4.16723179411445     -1.84626097831426     -0.94094813272680
  H   2.68388386368352     -2.77149561607489     -0.58047157907690
  P   -1.47709157404594     -1.55342906114200     -1.23575825255786
  P   -2.14435061765372      0.42720626535723      1.18124335343413
  C   -2.86489499044472     -2.09058212473558     -0.09942430956685
  C   -0.94490927418467     -3.17094490324373     -1.95882587979060
  C   -2.34097780835375     -0.75448334766482     -2.65957070469977
  C   -3.21171192345965     -1.10928461097964      1.06244994635361
  C   -2.29012522089716      0.84074396886650      2.97921133278853
  C   -3.16929805619462      1.74903481887341      0.39730826849690
  H   -3.75492261173004     -2.29620876941016     -0.70926179693313
  H   -2.55018192315431     -3.05382867029690      0.32444022412774
  H   -0.25707267286114     -2.99282879665499     -2.79467172531656
  H   -0.42474790762767     -3.77390623005637     -1.20387232243105
  H   -1.80719816746453     -3.73830611286010     -2.33507140436010
  H   -1.60297169491447     -0.47688523362941     -3.42192194092260
  H   -3.08629056419897     -1.43082997817683     -3.10023135081406
  H   -2.83229789323859      0.16928458984683     -2.33479220339093
  H   -3.09529959720318     -1.63253009047254      2.02102853381417
  H   -4.26370645843743     -0.79921449589571      1.00539891949291
  H   -1.73738362560179      0.11137643581755      3.58484814273181
  H   -1.86908787691288      1.83652401354245      3.16532951229621
  H   -3.34142530445147      0.84395355791872      3.29801736776612
  H   -3.29665213933540      1.54757185852107     -0.67208818172593
  H   -4.15595285253677      1.81903537275740      0.87567386584292
  H   -2.65116118685412      2.71154649083317      0.48573905200158
