84
Coordinates from ORCA-job DAQHEM-oxo_2_3_tpss_d4_lanl2dz_631gpol_Fe2.opt
  Fe  22.25211105167728      0.55243942405463      9.39780497610702
  P   23.78277107847309      1.32995618523844      7.76869444732762
  P   20.80454618859935     -0.27320344602657     11.07191155655078
  O   21.27832704212829     -0.07590924805284      8.20716017130471
  N   20.27878495519494      2.46520952777767      8.51486924001225
  H   20.02094260507885      1.68446015350233      7.91144941478243
  N   21.32222075821482      2.25151065293599      9.35626062200626
  N   23.00396551829483     -2.15954815449196      8.81496070283493
  H   22.22910487247227     -2.08944329699972      8.15604431221043
  N   23.26369889503868     -1.06589268427158      9.56378553412979
  N   23.42109552930911      1.35095252927952     10.83701021498913
  N   22.47130001700500      3.52965005475004     10.99908831382381
  H   22.52755621423759      4.42746350387653     11.47263519541490
  N   24.92237614538164     -0.53645693599499     11.24753106891233
  C   19.76508868957461      3.71871556076488      8.62686054561920
  C   20.52802016839138      4.35785355646082      9.61306304078642
  H   20.40715538874520      5.37072610479400      9.97373479670755
  C   21.47567624769082      3.40548027704400     10.03007005792550
  C   23.36856003608645      2.58323618726729     11.37066907047131
  C   24.39239554509190      2.79346581359247     12.38596261612368
  C   24.72496902033916      3.87924377212262     13.20352514758235
  H   24.18373518766835      4.82419827202785     13.17766643995720
  C   25.80374529293310      3.71339170619468     14.08486588251136
  H   26.09163029250523      4.53451443338891     14.73698954231301
  C   26.52039681110476      2.50219169672772     14.14004959360438
  H   27.35136517860072      2.40955499343839     14.83563230817406
  C   26.18362061812245      1.41463873877377     13.31704179409666
  H   26.73405808004698      0.47809662946949     13.35651075713323
  C   25.11116182795437      1.58053427913633     12.44216334045488
  C   24.50436373419460      0.67167467304427     11.46653189630760
  C   24.34013955896129     -1.38020397228839     10.33862051044806
  C   24.74427591993792     -2.70636441804158     10.04589421997911
  H   25.56993108673108     -3.22986586825315     10.50706293358441
  C   23.87654010513713     -3.18569086312527      9.06745928479938
  C   18.60507089116122      4.21188817733382      7.78906088371478
  C   18.07719666194932      3.08469488825830      6.87526178643929
  H   17.23673119905932      3.46204633727863      6.28188950547194
  H   18.84489490178570      2.73869337745718      6.16728271559365
  H   17.70780762056387      2.22691136021764      7.45627529858528
  C   17.47735622728873      4.68877598746402      8.73971842920403
  H   16.63797939744343      5.07010743511278      8.14531638780207
  H   17.11086912553744      3.86508717171333      9.36596412292410
  H   17.82263958707623      5.49788804331296      9.39606832578408
  C   19.09921458596510      5.40006161521234      6.92256021434759
  H   18.26510832705753      5.78502299902821      6.32300477357516
  H   19.47609267425497      6.22024838575086      7.54661672915453
  H   19.89866412023050      5.08676858684255      6.23820269715283
  C   23.77135613250456     -4.51422769685817      8.35127805768236
  C   23.89827145776826     -4.28335933452517      6.82280354253824
  H   23.84470744406475     -5.24703262230291      6.30209361791668
  H   23.08408938391874     -3.65354581484297      6.43456212909912
  H   24.85641567054353     -3.81027966822342      6.57180201539471
  C   22.39584456733116     -5.15502573938554      8.67378462693067
  H   22.31608225562140     -6.12507843382598      8.16808004712794
  H   22.28044270452110     -5.32118571639809      9.75283117342575
  H   21.56198320595843     -4.52849936939217      8.32484812546157
  C   24.90569348598277     -5.44091227960768      8.83548487639450
  H   24.83208588566733     -6.40661607791697      8.32174429163284
  H   25.89272227713475     -5.01454308923298      8.61334177291824
  H   24.83631751217875     -5.62733963235227      9.91530938470597
  C   22.96964666664280      2.34526864321875      6.47438032345114
  H   22.14164142002986      1.77717627100024      6.03329202967212
  H   22.57495931899683      3.27204166890856      6.90848690634089
  H   23.68479767119183      2.60399284958232      5.68214998338917
  C   24.59393980388526     -0.03653799857424      6.85367353047630
  H   25.17904859496014     -0.65973592319788      7.54103951968538
  H   23.83281586944315     -0.66045266028939      6.37008417647968
  H   25.26430391835903      0.36428352871700      6.08141850618155
  C   25.16526598042558      2.37049178561383      8.38587882163330
  H   25.77712618808653      1.80646052991443      9.10021173795738
  H   25.80492063186643      2.69244781106845      7.55294555674261
  H   24.77189639642488      3.26279400226844      8.88811809956309
  C   19.26945825959383      0.71381574049158     11.27538820975917
  H   19.51125795066314      1.74538350720638     11.55859436571441
  H   18.71670785582791      0.73178757231649     10.32849442763516
  H   18.62706311787110      0.27471761242538     12.05036706261891
  C   20.22463137916017     -1.96437270514037     10.66910158936813
  H   19.79072013323992     -1.96942981549860      9.66190361859476
  H   21.06510231471310     -2.66783687251296     10.69748831512480
  H   19.46514444855481     -2.29515925866207     11.38993020608621
  C   21.52396682979931     -0.40532929332359     12.75468148435510
  H   21.78103199908485      0.58804107380984     13.14172188820688
  H   20.80728481135649     -0.87483039259696     13.44199830654032
  H   22.43510147632757     -1.01494640498063     12.72498625445846
