85
Coordinates from ORCA-job DAQHEM-OH_2_2_tpss_d4_lanl2dz_631gpol_Fe2.opt
  Fe  22.31429574423541      0.60079952676917      9.39656415862342
  P   23.89108730500143      1.39527058158805      7.82273480361353
  P   20.77515282004423     -0.26013224311612     10.97403551335051
  O   21.24228953443485      0.02454623493733      8.00160324849487
  N   20.29466364744184      2.44616138516958      8.49491151171051
  H   20.11831673309087      1.66398597891512      7.85726651847508
  N   21.31388810991924      2.24474493959765      9.36524899126898
  N   22.99921839763532     -2.17614412982410      8.83832022818440
  H   22.13321062205088     -2.20442778387926      8.30717227714415
  N   23.29950514430423     -1.03490130828310      9.50595001262486
  N   23.39635718247704      1.35444871309795     10.82986181206948
  N   22.33943704062704      3.47715777433926     11.10733288894325
  H   22.37000639316182      4.36156068319417     11.60824985541242
  N   25.03823202059202     -0.44084437410113     11.08069507315746
  C   19.70261701969435      3.66030163402883      8.65694873454436
  C   20.38824876569029      4.28558544961175      9.70721467213190
  H   20.19597029517016      5.26889324635334     10.11543708319621
  C   21.37311570172152      3.36349915151493     10.10648539854960
  C   23.29295493365876      2.56786292009385     11.41521444374067
  C   24.35546461760102      2.80227996337028     12.38147987564205
  C   24.66135569626262      3.87601706287068     13.22601117159133
  H   24.05335772695898      4.77852589016022     13.27497110732538
  C   25.80064746540032      3.75412604459556     14.03418802273779
  H   26.07043109395127      4.56748389072980     14.70350027806438
  C   26.60193163658099      2.59580219672846     13.99433790748660
  H   27.47963503021245      2.53686661937579     14.63395989973490
  C   26.29090594212408      1.51949665270213     13.14723725956468
  H   26.90654081543573      0.62425620477011     13.11356670605175
  C   25.15906583278845      1.64223087350877     12.34265955347100
  C   24.56126025672061      0.73140402756813     11.36476743643653
  C   24.42669219472327     -1.31361166463373     10.22107214791868
  C   24.82576864365388     -2.65113045073066      9.96983624946835
  H   25.68295954068303     -3.14596005021037     10.40424175575092
  C   23.89165835935925     -3.18941180363580      9.09323700209728
  C   18.55659543040224      4.13921985231073      7.79179164541545
  C   18.05781734496183      3.00067742137373      6.87552526456945
  H   17.21977837349952      3.36214130731819      6.26877614562308
  H   18.84049199651896      2.66485944713018      6.17893815849171
  H   17.69823336111877      2.13853445940787      7.45568349835159
  C   17.40467672129231      4.61650973231499      8.71107299248151
  H   16.57670349302758      4.98873645722412      8.09528319472497
  H   17.02811356698809      3.79599759592714      9.33570989350338
  H   17.72846460905205      5.43334512088272      9.36895859361588
  C   19.06093681878452      5.32353225638708      6.92478801417989
  H   18.23813759757121      5.69546996216566      6.30169072462907
  H   19.41755830801358      6.15210029266722      7.54983692989720
  H   19.87906006076621      5.01013975505189      6.26252102722754
  C   23.73849987661461     -4.55616368716705      8.46330533255199
  C   23.84279713105830     -4.41725736223345      6.92177292788420
  H   23.75099645545856     -5.40559204601617      6.45507949458146
  H   23.04069800544725     -3.78257492722311      6.51610139237833
  H   24.80899365055449     -3.98714063040957      6.62868577651667
  C   22.35441854991550     -5.14171696279093      8.84626617174942
  H   22.24590846012621     -6.14428419211064      8.41494465028723
  H   22.24669190160537     -5.22433332297498      9.93571359152480
  H   21.52749639590380     -4.52781733099473      8.45764187222851
  C   24.85839581276113     -5.48137373523053      8.98236875258634
  H   24.75261877886296     -6.47350578760470      8.52787940610690
  H   25.85109473979949     -5.09381932944243      8.71825061897032
  H   24.80509955814121     -5.60099356466417     10.07245412041234
  C   23.13840456632873      2.51785813594279      6.57598521184073
  H   22.28195715182212      2.02440928317892      6.10031529497753
  H   22.78289152205110      3.43464013811035      7.06252734538770
  H   23.86767066915209      2.78831793578258      5.80093876500684
  C   24.65434829092321      0.04783624242918      6.82943639901850
  H   25.22658274465535     -0.62074355853948      7.48433802943898
  H   23.88336969713408     -0.54650299667954      6.32116955037445
  H   25.32691872839690      0.45864514412482      6.06479314220842
  C   25.32510775414488      2.34134910296514      8.47541884767931
  H   25.92135712451381      1.71457071494960      9.14893720837402
  H   25.96634433360404      2.68179421356807      7.65142863164549
  H   24.97463940984552      3.22029973781088      9.03019446407413
  C   19.40408964620068      0.85737364639319     11.47401162650865
  H   19.80419127609814      1.76530705486041     11.94121767040780
  H   18.81684476379479      1.14913860171650     10.59506600838573
  H   18.74205379245335      0.35563263856794     12.19219199617528
  C   19.93647323770316     -1.77506174617780     10.36480419893168
  H   19.49603549034723     -1.57643064441435      9.38038772976794
  H   20.66433876099686     -2.59036222651482     10.27089176446917
  H   19.14718907959717     -2.09365808805987     11.05864284608988
  C   21.56375715451408     -0.76118421617739     12.55563373633353
  H   21.95331059175474      0.12073630568534     13.07875857064088
  H   20.84141672134426     -1.26573906120039     13.21102126541909
  H   22.39969849221449     -1.44345473058523     12.35854303133326
  H   21.75131973875426     -0.35823624621257      7.25678287644362
