89
Coordinates from ORCA-job DAQHEM-CH3OH_2_5_tpss_d4_lanl2dz_631gpol_Fe2.opt
  Fe  22.15669862758586      0.53331424079854      9.48431898693744
  P   23.69813029870513      1.38498251917657      7.57570033966986
  P   20.67907143807651     -0.47625397576694     11.37481832729911
  O   20.78279026909573     -0.56500138680739      8.04337344943875
  N   20.18827001777008      2.72226075925011      8.57375294830089
  H   19.83804296334030      2.01292284319174      7.94088838945799
  N   21.14567444007963      2.36894110068702      9.48073948428773
  N   23.29369146513073     -2.29042309463068      8.91565770784686
  H   22.52381981186344     -2.38687437467359      8.26201880549160
  N   23.38448452235385     -1.14098214671263      9.62685345305426
  N   23.34708638414243      1.42451305335395     10.96852927099483
  N   22.34282051872968      3.57601268990857     11.17049928879305
  H   22.39466012630562      4.46350647424579     11.66342154970962
  N   24.95138512174661     -0.40162684985715     11.34367990034250
  C   19.82090967738722      4.02902133179461      8.65504461548838
  C   20.59174517876672      4.57339861902496      9.68644974353815
  H   20.57829976203800      5.59737071098988     10.03607931365372
  C   21.39182933929990      3.51444582107704     10.15521266739349
  C   23.25441791461816      2.63435646895247     11.53498725177242
  C   24.24992567161300      2.85387153124966     12.58118123514559
  C   24.52777889501055      3.92249559253087     13.43931541675098
  H   23.94958713088764      4.84592425908076     13.43743807201178
  C   25.59854308935291      3.76917212372210     14.33365774579581
  H   25.84247608561692      4.57804708207860     15.01833305401581
  C   26.36206914849663      2.58668888714920     14.35967618075996
  H   27.18534561097526      2.50263064611430     15.06546597935369
  C   26.08019817841672      1.51693744719339     13.49418321934965
  H   26.66661262434830      0.60168044118940     13.50910830213295
  C   25.01379128858482      1.66949861482962     12.60945846138292
  C   24.45677996316405      0.76945244237082     11.59156742521902
  C   24.48148532939769     -1.30418347309757     10.42289218014344
  C   25.06362334414099     -2.57313564820408     10.18067298630658
  H   25.94127121997591     -2.96941336391362     10.67176422068405
  C   24.28139416053736     -3.19264419270778      9.21011453286873
  C   18.79629095453797      4.65775458307879      7.73597221395512
  C   18.23374495431370      3.61208617096383      6.74842723120327
  H   17.50195471476724      4.09176424912019      6.08872892924174
  H   19.02314807347787      3.19296095162816      6.10545990807998
  H   17.71309188314811      2.79463185013446      7.27003969477226
  C   17.64494951938743      5.23993377067694      8.59490432105866
  H   16.90668099794178      5.71826492202579      7.93928398354107
  H   17.13878210535924      4.45254958311389      9.16838383489838
  H   18.01549248962091      5.99693078493301      9.29763519998147
  C   19.49007962732067      5.79757662247048      6.94460106739269
  H   18.76161617482016      6.27682610520578      6.27876353837401
  H   19.89037608355852      6.56489417229307      7.61913698214099
  H   20.31490616686438      5.41022900652181      6.33153289682021
  C   24.34385491940371     -4.55064267092539      8.54671264447557
  C   24.35100202297866     -4.37291514635868      7.00692291938845
  H   24.39890358496520     -5.35551851005456      6.52202389054947
  H   23.43686614138011     -3.87467447748589      6.64836041738689
  H   25.21728452998329     -3.78421215313652      6.67903149403780
  C   23.09979452513976     -5.37396170621929      8.97433503879714
  H   23.13829678366190     -6.36879273660975      8.51361715199368
  H   23.06595676141590     -5.50012341383120     10.06400592998560
  H   22.16426509293701     -4.89241192596651      8.65153319055254
  C   25.62799147169978     -5.27989608565029      8.99315218151483
  H   25.67789055343086     -6.26206965623867      8.50814315047428
  H   26.52632489972324     -4.71526246119083      8.71149445841018
  H   25.63862727661953     -5.43987872938271     10.07921395292074
  C   23.05243984286799      2.51905194225324      6.25889297418753
  H   22.31377148385367      2.00666666591048      5.62863887650899
  H   22.56210726126805      3.38388406065210      6.72553201953791
  H   23.86278238721776      2.88328111764921      5.61312682427309
  C   24.66966156657828      0.13522477986067      6.61609396504826
  H   25.22193276967772     -0.50804576916898      7.31312342173421
  H   24.00756657630992     -0.50149339920153      6.01510593014865
  H   25.38734322611397      0.62276622620438      5.94292761808574
  C   25.04574570919924      2.41184495862545      8.31579114305578
  H   25.62270825337614      1.81550764507823      9.03326914691515
  H   25.72536551574220      2.78177644176572      7.53652658485527
  H   24.61845785436862      3.27152373613133      8.84711175364582
  C   20.15449123262978      0.86284005749632     12.53430019546569
  H   21.03943078245622      1.38930152056953     12.91279136563401
  H   19.51846039788494      1.58755711011697     12.01036498898409
  H   19.59959477647390      0.45402334239694     13.38923537376163
  C   19.09092611174478     -1.40257636762063     11.10830088441041
  H   18.36668397389651     -0.77909989835865     10.56544576564552
  H   19.27312240782146     -2.32003055838508     10.53040362809669
  H   18.63589206028186     -1.69535194809139     12.06444600099981
  C   21.62392571139024     -1.62379420531056     12.46723259343383
  H   22.54281626085293     -1.13275068521494     12.81003335686210
  H   21.03260808357074     -1.92294163612195     13.34283076417501
  H   21.91141387973298     -2.52290554671913     11.90771664870977
  C   20.62594860136245     -0.68344905339401      6.59691702216403
  H   19.74074354502549     -0.13321459310743      6.25560574616317
  H   21.52793409863104     -0.24589869578950      6.16607351038503
  H   20.54343567229197     -1.73676805242059      6.30519275601356
  H   20.01433803136442     -0.97541948851082      8.49021841375924
