84
Coordinates from ORCA-job DAQHEM-oxo_2_1_tpss_d4_lanl2dz_631gpol_Fe2.opt
  Fe  22.24813012652758      0.55152872364974      9.39535458499618
  P   23.79522875377349      1.33900238269451      7.79597035859160
  P   20.82136957952254     -0.26429539028415     11.08688345238310
  O   21.27771762973865     -0.07924195826540      8.19970400453857
  N   20.27033236121559      2.45476659983668      8.50377239811147
  H   20.01785656367372      1.67073932461195      7.90162563928524
  N   21.31236989942389      2.24318627719373      9.34686227895368
  N   22.99166765015688     -2.16171024712657      8.80401487716285
  H   22.21753874270994     -2.08627122048556      8.14425917493320
  N   23.25240721991393     -1.06921055012572      9.55325021963294
  N   23.41147583963998      1.34626404715674     10.83217173863042
  N   22.46055021456340      3.52423450103362     10.98904653350628
  H   22.51578399863853      4.42330095457269     11.46032072729899
  N   24.91369839115722     -0.54056262937409     11.23556588597369
  C   19.75620291700174      3.70852980559550      8.61235505273974
  C   20.51738239610564      4.34985422943604      9.59884952955624
  H   20.39518725504636      5.36332554198319      9.95737808220778
  C   21.46496070550549      3.39823651669839     10.01866573369136
  C   23.35873411046915      2.57929164092433     11.36374735829382
  C   24.38437165279010      2.79016364617811     12.37721690790472
  C   24.71833717685485      3.87638879411086     13.19370712323579
  H   24.17604110176937      4.82073622593244     13.16880233553112
  C   25.79940176937426      3.71182428790795     14.07237578942118
  H   26.08823942783885      4.53339918881281     14.72353300499611
  C   26.51733548674064      2.50121657454506     14.12625409485957
  H   27.35019671357318      2.40963899056046     14.81971618991149
  C   26.17939253395813      1.41308403979736     13.30459032786325
  H   26.73092901111414      0.47711932525258     13.34303343859762
  C   25.10458379347298      1.57722306441505     12.43218822159183
  C   24.49632531264708      0.66763165036324     11.45794470275909
  C   24.32948130136968     -1.38456945751624     10.32687000381726
  C   24.73338975393035     -2.71068894867815     10.03261829713262
  H   25.55914931649149     -3.23556378059633     10.49205961348911
  C   23.86444933613359     -3.18844940440770      9.05410025303719
  C   18.59735818183189      4.20037345406266      7.77210225147619
  C   18.07175211160431      3.07198176840379      6.85856652817449
  H   17.23139913933115      3.44792979182167      6.26392835083794
  H   18.84087542402375      2.72620132725897      6.15201047627707
  H   17.70269994905451      2.21410876782191      7.43985765721140
  C   17.46745441341677      4.67783768180539      8.71996487980200
  H   16.62953374631451      5.05957622680182      8.12366823341142
  H   17.09899240024306      3.85397879298703      9.34509442772828
  H   17.81111357554126      5.48671985159029      9.37752423734703
  C   19.09208643344505      5.38769901418768      6.90478717464438
  H   18.25865778949996      5.77222031795915      6.30390998548612
  H   19.46836198459540      6.20866595027185      7.52816669011490
  H   19.89215524120270      5.07362381012158      6.22143701478819
  C   23.75753047348119     -4.51672825521436      8.33790996548970
  C   23.87554203615247     -4.28590698978061      6.80898782934929
  H   23.82056404794999     -5.24966866068362      6.28870124341428
  H   23.05822056915185     -3.65742405788986      6.42506054899002
  H   24.83133368750125     -3.81126114699901      6.55236328994821
  C   22.38450474733691     -5.15885485760707      8.66803417607884
  H   22.30251048147734     -6.12894541839666      8.16283960687044
  H   22.27542440576613     -5.32524881088636      9.74769209855155
  H   21.54835747714586     -4.53282559596062      8.32400103164359
  C   24.89558345054169     -5.44227850343082      8.81557502242951
  H   24.82045558998985     -6.40803255986785      8.30217601599934
  H   25.88067621542012     -5.01458602316548      8.58783244009759
  H   24.83288211243790     -5.62924166542380      9.89561732319621
  C   22.99830701822911      2.37666706655933      6.51004675192851
  H   22.17904293611933      1.81547899604903      6.04453660660849
  H   22.59385590840703      3.29333611725278      6.95629794712618
  H   23.72587965124022      2.65311051249402      5.73515894936951
  C   24.60413730022564     -0.02386834432495      6.87536959162447
  H   25.18036274204317     -0.65613431525302      7.56192746411924
  H   23.84226490618975     -0.63894964913699      6.38185163119237
  H   25.28260441133362      0.38001945070461      6.11174453639769
  C   25.17664534551253      2.36223119402001      8.44044974770495
  H   25.77664377447096      1.78771774483778      9.15625287265941
  H   25.82711689427071      2.68467994996191      7.61620920299219
  H   24.78522175854914      3.25416103508686      8.94433434115380
  C   19.29041911651435      0.72596394629111     11.29871722468073
  H   19.53582530535440      1.75749609110783     11.57836484929705
  H   18.73153441718737      0.74323782806120     10.35559515729803
  H   18.65329586623735      0.28895468494745     12.07920116388437
  C   20.24040487757518     -1.95889157632226     10.70138497949058
  H   19.77813660114631     -1.96850314236483      9.70702461538705
  H   21.08584668147758     -2.65692297312777     10.70681075636987
  H   19.50373655370486     -2.29279765445230     11.44444920513538
  C   21.56049942972220     -0.38480354223659     12.76066154453123
  H   21.82069737073207      0.61064103700960     13.13973690774424
  H   20.84955673710519     -0.85052911033039     13.45671461400488
  H   22.47082066934949     -0.99513230302530     12.72564290530522
