47
Coordinates from ORCA-job ACAHAO_1_4_tpss_d4_lanl2dz_631gpol_Co2.opt
  Co  3.31784747476830      0.98156841174434      2.65095598285246
  N   1.68545047112998      2.35735261306198      2.75643062845761
  N   2.41246979855492      0.67854003795943      0.77774382742748
  N   4.81294930076321      2.36860971399781      2.31774069516084
  N   3.92531631124559      1.47771701480848      4.68283422106327
  N   4.41939813974203     -1.94634451684923      2.92487628056812
  C   3.98447969472469     -0.84881218012977      2.93411341476374
  C   2.75638206293445     -0.23196001866874     -0.14131387913853
  H   3.60123828104460     -0.86826930007586      0.11511466274757
  C   2.05342174506774     -0.36939553818923     -1.35657338877229
  H   2.37138283726595     -1.11967974714654     -2.07572542004268
  C   0.96659679628818      0.45581317551797     -1.61257767700502
  H   0.41194111854934      0.37217775597022     -2.54559245660824
  C   0.56394200313549      1.40874429220487     -0.64195018035359
  C   1.32590985897483      1.47059696119692      0.55473739875547
  C   0.95040339213242      2.38087442424421      1.60378524181463
  C   -0.16337987474358      3.24428202726703      1.41828219971107
  C   -0.90128549488006      3.18117351911913      0.18637828212442
  H   -1.75203101718767      3.84733150149411      0.05645889039939
  C   -0.55631518179980      2.29457591873562     -0.80141948507551
  H   -1.13100456069515      2.24642034732756     -1.72434794293928
  C   -0.48987108943553      4.11861839560694      2.48452602192030
  H   -1.33576600259100      4.79663943077752      2.38499320896417
  C   0.27030536771710      4.09612958578121      3.64556086194463
  H   0.04226478878946      4.75367583291305      4.48035215967229
  C   1.35099507298228      3.19704900679244      3.74328795236838
  H   1.96246976225914      3.14336059904799      4.64017560421116
  C   3.51162042897341      0.94491837473516      5.83744410996446
  H   2.67804088170683      0.24891261554508      5.77245845874042
  C   4.11988427051102      1.24767280603607      7.07343266491508
  H   3.74238246558092      0.78751063207146      7.98291435925676
  C   5.19510622370672      2.12584512326844      7.10612551693300
  H   5.68132057382502      2.37727287704099      8.04706576087244
  C   5.67258987570441      2.68778026764955      5.89643339080243
  C   4.99778704421764      2.31673031569672      4.70179226432486
  C   5.45950241248557      2.81103932351667      3.43611735308842
  C   6.56469562465129      3.70274454384546      3.38141245611794
  C   7.21037686075429      4.08597350831445      4.60706406264164
  H   8.05665225714948      4.76837710469568      4.55712974314922
  C   6.78627966762663      3.59260450476099      5.81453382878400
  H   7.29430211120197      3.87751034926188      6.73393778563605
  C   6.97416157492976      4.14869457486403      2.10099104039718
  H   7.81622650643824      4.83283893258489      2.01211033793625
  C   6.30158586913476      3.70111356897315      0.97121470991853
  H   6.59725724233644      4.02275052569923     -0.02389770593077
  C   5.22589463601694      2.80485542958082      1.12014273353112
  H   4.68552241631141      2.42016535734954      0.25813002392878
