47
Coordinates from ORCA-job ACAHAO_1_2_tpss_d4_lanl2dz_631gpol_Co2.opt
  Co  3.16337552084059      1.01304083312496      2.77970461222309
  N   1.76351438589725      2.39789738933738      2.83579699452300
  N   2.39227362530968      0.59939290564665      1.04870959952142
  N   4.63042108164518      2.39088213221941      2.23749805789365
  N   3.83025184399617      1.36020117715847      4.55717091169350
  N   4.99272630040526     -1.41847324456833      2.63619403446755
  C   4.28891623538904     -0.47409759825166      2.71137492907758
  C   2.75336262998652     -0.34737162455853      0.16409206532179
  H   3.56914873492535     -0.99555422001008      0.47123330955421
  C   2.10111289370388     -0.49155970973650     -1.07757205556702
  H   2.43231978025055     -1.27713668797156     -1.75161614210561
  C   1.05284481901658      0.35207540876704     -1.42222774338198
  H   0.54117712638579      0.24678329005710     -2.37703125909488
  C   0.64886785694333      1.35808671541416     -0.50945787544395
  C   1.35606037171055      1.43476532221462      0.71544437340291
  C   1.01498090450582      2.41601790872743      1.68821080925286
  C   -0.03484692473558      3.33712614329672      1.44729874118802
  C   -0.74422835252915      3.24664558143718      0.19965346375791
  H   -1.55390393242825      3.94834846117682      0.00947432733708
  C   -0.41641777832160      2.29766137773112     -0.73730403191128
  H   -0.96486243927618      2.24211666175317     -1.67562417571365
  C   -0.30395517627955      4.28367123781391      2.46621470451990
  H   -1.10129638931428      5.01273937231129      2.33513959960790
  C   0.46090163286842      4.26584186379373      3.62632471502763
  H   0.27958267796275      4.97856359539178      4.42668437192226
  C   1.48643609541201      3.31190140678046      3.77838228155948
  H   2.09723080725645      3.27864311179109      4.67614267582945
  C   3.41712668692849      0.78862180504184      5.69802438618152
  H   2.59962455390386      0.07786642268738      5.61337766952965
  C   4.01917640345275      1.07838898553417      6.93755806287611
  H   3.64725272513208      0.58808589523737      7.83318200905533
  C   5.08254696291914      1.97019061929319      6.99445803280402
  H   5.56645960636969      2.19922352708816      7.94198409911829
  C   5.54944968280882      2.57442246462172      5.80147068123854
  C   4.88356443198591      2.23198527825303      4.59602280858781
  C   5.31443300073349      2.78509555788291      3.34770039650766
  C   6.41542611262461      3.67996005144975      3.30999854785566
  C   7.06924228442465      4.02352256786120      4.54327215285313
  H   7.91240451220141      4.71095908568012      4.51165237045863
  C   6.65302458350317      3.49375779726871      5.73877751758726
  H   7.16246583964265      3.75604529548090      6.66389969946149
  C   6.80041571466656      4.16853595333546      2.03678672986847
  H   7.64114353826049      4.85461923576349      1.95185394762781
  C   6.10184305305620      3.75651439970098      0.90966960217302
  H   6.37886694335219      4.10858716184442     -0.08078155338821
  C   5.01899249938552      2.86251838194907      1.05040557140221
  H   4.45724653312165      2.51499070317817      0.18617597373861
