53
Coordinates from ORCA-job ACAHAO-CH3OH_1_2_tpss_d4_lanl2dz_631gpol_Co2.opt
  Co  3.25414616198729      1.03944770974289      2.84383640339927
  N   1.84526597108692      2.41334565739812      2.88502665500093
  N   2.50916074164979      0.63353715581518      1.08647820047292
  N   4.69660038978047      2.49591429783135      2.20884096571843
  N   4.00621802773336      1.47854900581400      4.58738161031016
  N   5.25473215059253     -1.24771948322182      2.57219403880185
  C   4.50113887390272     -0.34907367830516      2.70813210117190
  O   1.70466119775733     -0.40314914729556      3.85498096947589
  C   2.89418510584417     -0.29048149333204      0.18813234532296
  H   3.71631676300951     -0.93135917074417      0.49538377674402
  C   2.26849791407778     -0.41571443563350     -1.06940372119061
  H   2.62007333586007     -1.18439403658265     -1.75291272888777
  C   1.22359915332800      0.42965563984042     -1.42108094750915
  H   0.73446711080695      0.34275588492287     -2.38950765886072
  C   0.79924844109685      1.41840947229463     -0.49878031838552
  C   1.47827624013336      1.47219526752959      0.74425528944258
  C   1.11946512512675      2.44410071763019      1.72206213792437
  C   0.08184545094174      3.37637937289157      1.46730794704607
  C   -0.60088847518717      3.30434694159699      0.20365928737178
  H   -1.40053871278732      4.01483720066124      0.00313125243187
  C   -0.25715579662747      2.36526512841423     -0.73750847646751
  H   -0.78319579969767      2.32602551478542     -1.68952806278236
  C   -0.20118270994166      4.31769394358784      2.48752009949200
  H   -0.98885349797125      5.05501360757762      2.34430716221679
  C   0.54003621991106      4.28561595732939      3.66282065570083
  H   0.34832910615954      4.99495275404858      4.46384267386838
  C   1.55525738529390      3.32264924363143      3.82854502760056
  H   2.14950582154357      3.27647285560553      4.73679838601431
  C   3.64300299616573      0.93682733518726      5.75947823352912
  H   2.82325061683998      0.22592318779280      5.70800799761991
  C   4.29087243054823      1.26477201036816      6.96599697593302
  H   3.95889702257411      0.79677569168280      7.88910804829908
  C   5.34793877828375      2.16469756645409      6.95696607418008
  H   5.86868045847356      2.42354599852191      7.87712215269215
  C   5.75870009930788      2.74206262308401      5.73081366670114
  C   5.04770868455562      2.36439786767154      4.56056072376117
  C   5.42190309416898      2.90382903451699      3.28513704061318
  C   6.51335230972508      3.80839012585818      3.19032095102679
  C   7.21444529818364      4.17981391734572      4.38820075366313
  H   8.04969014213419      4.87334102601298      4.30952464085270
  C   6.84988149869535      3.66962478803769      5.60799299888349
  H   7.39139787530683      3.95387746667714      6.50826690961955
  C   6.84313529073217      4.28419735952103      1.89713676171387
  H   7.67466241682173      4.97550271610938      1.77170280885966
  C   6.10348215919492      3.85471120329560      0.80373573941929
  H   6.33690711494938      4.19706063603141     -0.20139450801832
  C   5.03335719390755      2.95648859765105      1.00297225517753
  H   4.43683611101844      2.59692813654813      0.16676500312552
  C   1.72744638303813     -1.80108713879326      3.45514956418209
  H   1.41703679556985     -1.91348551062796      2.40820032740361
  H   1.07173533331013     -2.38790122879842      4.11036065330557
  H   2.76475464676557     -2.12201257904748      3.56066904980332
  H   0.80539355431769     -0.05576271493513      3.69274010620877
