47
Coordinates from ORCA-job ACAHAO_1_6_tpss_d4_lanl2dz_631gpol_Co2.opt
  Co  3.28558034844852      0.92930225542647      2.67470102901383
  N   1.69342929948668      2.31085453505728      2.76277008197277
  N   2.37649894410848      0.62123800574456      0.81286808589715
  N   4.73661551487449      2.34981189286961      2.31719353661008
  N   3.92160717587609      1.40986072736079      4.69486318098660
  N   4.47864736872409     -1.97086608479530      2.90741139867241
  C   4.01477916690584     -0.88394243764319      2.91264988886833
  C   2.72779342067672     -0.33538695466166     -0.09921287133672
  H   3.54032443196271     -0.99251109139797      0.19827812172860
  C   2.05237688611384     -0.45332753507325     -1.32470951373497
  H   2.35901482619765     -1.22317638624728     -2.02844900068666
  C   1.00235081631257      0.40647291097077     -1.62486726469298
  H   0.46796151975732      0.32897021317491     -2.56944195574260
  C   0.60247406859533      1.40436283777726     -0.66917125089857
  C   1.35021755884440      1.44207481189498      0.55854733544807
  C   0.99203828857285      2.38555133220524      1.62337574147658
  C   -0.07849399518487      3.32279276831865      1.41316189851485
  C   -0.76995504172260      3.29368589166800      0.19756267413504
  H   -1.57576147999444      4.00138267896300      0.01628159664556
  C   -0.44023028119826      2.31748858846404     -0.84731997940345
  H   -1.02193697863714      2.31295358624404     -1.76606302313287
  C   -0.35675060887625      4.23040029332216      2.49381393863383
  H   -1.15119703337235      4.96549476861510      2.38622991306610
  C   0.39137898822012      4.14529397044988      3.66634289501912
  H   0.19494166499415      4.81804454371647      4.49778455953838
  C   1.39436233157742      3.18001480474486      3.78884634708859
  H   1.98524828633789      3.06308718852705      4.69046210943611
  C   3.54513442745685      0.85781787919491      5.85306198197804
  H   2.73742754400816      0.13116773933635      5.79880682110418
  C   4.15975923168846      1.18189450707767      7.08048372033694
  H   3.81374286520077      0.70571535349124      7.99418349353795
  C   5.20006082453123      2.10133868271517      7.09919407916556
  H   5.68987092262399      2.36947138454518      8.03365266281897
  C   5.63747299763804      2.68526567223810      5.88433915876467
  C   4.95986396426657      2.29148932985340      4.69870934963222
  C   5.38259223261614      2.80901430417788      3.42858688827885
  C   6.45167341164362      3.74274667552940      3.36105099632114
  C   7.10075091447546      4.14612568773407      4.57816045953231
  H   7.91922368381038      4.86087923009574      4.51842143572320
  C   6.71397664312089      3.63249404607454      5.78984039867987
  H   7.22402666988593      3.93333758936528      6.70299727591413
  C   6.82392126908014      4.20898029900692      2.07621256912036
  H   7.63781828333010      4.92522917630127      1.97811642101403
  C   6.15194842808786      3.74120692320757      0.95441350180022
  H   6.41998656824990      4.07796337425044     -0.04351009605110
  C   5.11214702572587      2.80526319678788      1.11475669759708
  H   4.57198660495804      2.40477083332022      0.26001271160790
