53
Coordinates from ORCA-job ACAHAO-CH3OH_1_4_tpss_d4_lanl2dz_631gpol_Co2.opt
  Co  3.31154776288691      0.94442981307738      2.85039411197050
  N   1.71940949493493      2.43342708593755      2.77566024326075
  N   2.38678601366524      0.58546931359575      0.95016753122254
  N   4.64650223726690      2.53551451948213      2.38179078737998
  N   4.05470422206819      1.48463298197244      4.78737975591918
  N   5.37946164945802     -1.43461406803387      2.37301068129616
  C   4.66501344498710     -0.53668864274569      2.65106500860167
  O   1.78119187683228     -0.34493660610765      3.83632705409025
  C   2.74398552272110     -0.35646346862185      0.06804384363650
  H   3.55070566780861     -1.01559691532715      0.38653459604633
  C   2.12413642227399     -0.47527315238974     -1.19475516533387
  H   2.44872255524569     -1.25748477818619     -1.87625600490641
  C   1.11690301094141      0.41190766163019     -1.54919927839655
  H   0.62974776990480      0.34381668008352     -2.52055138468146
  C   0.72201522205019      1.42245087558888     -0.63566228033689
  C   1.39395530070235      1.45798995220187      0.61569156798814
  C   1.04439551184310      2.45702198290660      1.59067839704648
  C   0.03923120562461      3.41758629009677      1.29119048133243
  C   -0.62352307147012      3.35925583722594      0.01715263764202
  H   -1.39406227121959      4.09587134842501     -0.20285789481426
  C   -0.29769700395789      2.39889017849573     -0.90675043188060
  H   -0.80814549401745      2.36503940383588     -1.86753663760951
  C   -0.24571403895780      4.38433037577467      2.28733764839985
  H   -1.00764631632590      5.13988875090966      2.10304631045202
  C   0.45245763673988      4.35737635944278      3.48733142352147
  H   0.25539726715610      5.08750574421459      4.26822185040962
  C   1.43051018769748      3.36248422024498      3.69296846809822
  H   1.99915393640134      3.30813614472780      4.61899311308009
  C   3.76272673307213      0.91787381315968      5.96331808450327
  H   2.92616959048815      0.22335049992281      5.95409660367715
  C   4.48985912319628      1.19250607903156      7.13915897595173
  H   4.21025524976817      0.70329179054734      8.06876791770106
  C   5.55633425837962      2.07986752766244      7.08735696365335
  H   6.13785808602928      2.30651114019447      7.97937223822102
  C   5.89577368975906      2.69041542523078      5.85501648617845
  C   5.10466562051464      2.35241236303189      4.72321490377194
  C   5.41589280450528      2.91877327579469      3.43970672640287
  C   6.50089931627388      3.82847350286316      3.30998293381558
  C   7.27446845334910      4.16323274764691      4.47366209402803
  H   8.10551493752573      4.85754474629194      4.36409183049732
  C   6.98528645398723      3.61386341821930      5.69609229322829
  H   7.58439481427050      3.86600385031640      6.56916695055507
  C   6.76118224277696      4.34624507175633      2.01773625171702
  H   7.58440043845071      5.04366195791828      1.87247073714321
  C   5.96761347962974      3.95124029112871      0.94937721168342
  H   6.14731185175303      4.32773807730410     -0.05436097982175
  C   4.91835817172384      3.03786433049809      1.17367923192454
  H   4.28576947200613      2.69398645577226      0.35810531783918
  C   1.83695718903505     -1.77984297027088      3.57736032906188
  H   1.59526561674024     -1.99099418955448      2.52867442675940
  H   1.13998808955743     -2.29794459811139      4.24650784276265
  H   2.86665298382628     -2.07687214271485      3.77859214269800
  H   0.89093561011947     -0.02338035209781      3.59088605261223
