49
Coordinates from ORCA-job ACAHAO-OH_1_3_tpss_d4_lanl2dz_631gpol_Co2.opt
  Co  3.05409550038805      0.93368592915525      2.91963032781149
  N   1.65494529168346      2.37834396709068      2.83221996384063
  N   2.44873454474298      0.72845157945075      0.86427833851309
  N   4.57407445153541      2.23692362303203      2.40847302408323
  N   3.81251228687826      1.50810765945891      4.85715501339135
  N   5.04005236627719     -1.37145431150671      2.64235448128518
  C   4.28823543880444     -0.47709640252742      2.79842125253591
  O   1.80879958414137     -0.16287096208709      3.60271228294451
  C   2.84112686720618     -0.15635073827521     -0.05735460951092
  H   3.68294500570396     -0.78872391747551      0.21897759609373
  C   2.19809268105755     -0.26180135396018     -1.30957742443176
  H   2.55114272143883     -0.99445193353780     -2.03081604573586
  C   1.12689076381462      0.57283786180916     -1.59934803381374
  H   0.61918235198521      0.51243278549980     -2.56051714108874
  C   0.68267907389359      1.50805751642068     -0.63005168765955
  C   1.38420966174351      1.53533095766470      0.60466676467134
  C   0.97370414734588      2.43019141149233      1.64895596412102
  C   -0.12129185769343      3.30957554217387      1.43404409135795
  C   -0.80130863464474      3.27832367963133      0.16785488537773
  H   -1.63915615626712      3.95546413007299      0.01321868334728
  C   -0.41958193657731      2.40955827829106     -0.82254542512798
  H   -0.95136467321382      2.38767125370739     -1.77186205164260
  C   -0.48762212600849      4.16356339356696      2.50337896480686
  H   -1.32137431354879      4.85275031518971      2.38168210578789
  C   0.21703241280855      4.10327136286203      3.69672286111486
  H   -0.04372679159356      4.74076088975563      4.53739490505822
  C   1.28318752861947      3.19027552870086      3.82590357411030
  H   1.84679315364504      3.10196792508466      4.74991843390722
  C   3.41697420559972      1.06530748502594      6.05355025404057
  H   2.52971010869627      0.43617588715700      6.05425109650829
  C   4.10949197841498      1.39683543469071      7.23802506559265
  H   3.75097484488071      1.01453245379672      8.19040120290763
  C   5.23702743631806      2.20493804191126      7.16756606355256
  H   5.78549250953535      2.47492382143895      8.06827977956843
  C   5.68200600330362      2.67554662927777      5.90659908965171
  C   4.92453876498915      2.28101694730428      4.77252511323199
  C   5.32152525424226      2.68857803284446      3.45773628763019
  C   6.46523886963175      3.51415323932810      3.28987207337114
  C   7.20631053381410      3.91686818491492      4.45423285378296
  H   8.08226165287721      4.54796527558563      4.31699698257520
  C   6.83470086786375      3.51068703059188      5.71079640564914
  H   7.41283211568621      3.81463896733083      6.58133193885623
  C   6.81207802246468      3.88094394361895      1.96716730926164
  H   7.68251078408116      4.51026866573566      1.79086080726407
  C   6.03840679159223      3.42324706846427      0.91048467225111
  H   6.27932938846110      3.68067815858012     -0.11752546826340
  C   4.92825067698787      2.59558580408876      1.16970421219192
  H   4.31702404554877      2.20264490413004      0.36397092694946
  H   2.16544580084451     -1.07996194655734      3.60476223827759
