48
Coordinates from ORCA-job ACAHAO-oxo_1_6_tpss_d4_lanl2dz_631gpol_Co2.opt
  Co  3.05952118106412      0.60692740269361      2.98959206484410
  N   1.64631157469496      2.28361518851608      2.88156737267014
  N   2.32130392695909      0.51953889168382      0.96962154498215
  N   4.52418716205296      2.24021058988941      2.34241631163802
  N   3.84617495219888      1.32608447933039      4.79482894423546
  N   5.46438411405020     -1.35967412944599      2.25854721575029
  C   4.56373053528695     -0.65415484734309      2.56099861438475
  O   1.87229366202045     -0.42636648237823      3.73552382182218
  C   2.66987395965651     -0.39050213987300      0.05285734009218
  H   3.43014903647652     -1.10613635838719      0.35571305471068
  C   2.08867749137566     -0.41431622908155     -1.23263428327302
  H   2.40293738817837     -1.17485557638797     -1.94272813317501
  C   1.12796910198304      0.52948014190061     -1.56668187149609
  H   0.66560822276046      0.52938559268302     -2.55236450346282
  C   0.74034272540463      1.50128518973458     -0.61033330968497
  C   1.37344847970765      1.44801061346672      0.66065209968343
  C   1.01797310150558      2.39348412594764      1.67942202808662
  C   0.03702179546306      3.38767761332074      1.41274688394292
  C   -0.58273056808984      3.42530377990199      0.11697093092207
  H   -1.33412515686552      4.18813289397004     -0.07841335021854
  C   -0.24584565000457      2.51788557524823     -0.85443847774342
  H   -0.72677235205740      2.55136999757540     -1.83027947882092
  C   -0.27497309247278      4.28562255336564      2.46303760284516
  H   -1.02128113702575      5.06234404660213      2.30498835469778
  C   0.37058860550670      4.15894578108675      3.68458156345086
  H   0.14818572233891      4.82868651358415      4.51138852554189
  C   1.32777491918091      3.13755876362288      3.85656668907234
  H   1.84688509373938      3.00442950921885      4.80214326070723
  C   3.50183297276773      0.82368740482282      5.98998258943519
  H   2.69154457485595      0.09844285704037      5.98240494503207
  C   4.15770328966751      1.20625891505427      7.17504563855303
  H   3.84818900586685      0.77228830690655      8.12214459599369
  C   5.19553652614086      2.12741232654389      7.10903912883285
  H   5.72127592913370      2.43629838066099      8.01107448311764
  C   5.58351970987968      2.66459455121594      5.85610859948452
  C   4.86786184456024      2.22573938277044      4.70867484018876
  C   5.22840342259981      2.71329287030364      3.40544558881819
  C   6.30473063247091      3.63370423898144      3.27409988680022
  C   7.00293972847664      4.07140775139309      4.45041829213264
  H   7.82458395240011      4.77623109366229      4.33657588436212
  C   6.65623439549559      3.60567910588827      5.69295211941496
  H   7.19820385594484      3.93534502978368      6.57732505492738
  C   6.63405532375153      4.05826707036245      1.96242172193975
  H   7.45271328114236      4.76004623833810      1.81226423679924
  C   5.91447288032987      3.56341570050708      0.88505223700851
  H   6.14930052800556      3.86242782469420     -0.13343468653499
  C   4.86484317624608      2.64932864440237      1.12026521342348
  H   4.29044017517491      2.23105882622235      0.29674881406513
