63
Coordinates from ORCA-job BAMJAB-CH3OH_1_1_tpss_d4_lanl2dz_631gpol_Co3.opt
  Co  -0.93497960664836      4.63900158316047      5.09676332390421
  S   -0.36067714181533      6.58164386875035      4.04111397341246
  N   -1.45788607661188      3.95645597801864      3.40101216051012
  N   -0.42356531942888      5.34779835539172      6.82418556593651
  N   -2.66018765988600      5.23757911131214      5.58618521906066
  N   -1.04231300627540      4.60060268361025      2.25470417792633
  O   -1.20421050724087      3.00926532659536      5.98931721720341
  C   -0.59258370146641      5.83536313504875      2.43906735417253
  C   -1.48631637234690      5.70113242571579      7.59671161026148
  O   0.95332881613879      4.04978718977148      4.73546000350678
  C   0.26707737141186      7.87512591041737      1.40780715165404
  N   -0.33014237010242      6.56886893801226      1.32298349392556
  C   -2.76708650100863      5.63399398253022      6.88887688368474
  C   -2.14029031690791      2.83071141003262      3.21343378793543
  C   0.82163703946296      5.39204168114475      7.32742248032404
  C   -4.01000559267615      5.97499827453172      7.43481038188703
  C   -2.24001664390779      2.24447064139448      5.67039435248483
  C   -3.75552459864797      5.21080982228024      4.80022108854294
  C   -2.85091224407104      1.49799048945915      6.70739989187326
  C   -1.30966418823880      6.11483205626616      8.92231940639202
  C   -2.72111426322983      2.10010305467249      4.32669128468922
  C   1.59958173188951      8.01170913513161      1.82634030729617
  C   -0.64036803989946      5.99813358606339      0.00017461043568
  C   -5.15048168441865      5.92330215636520      6.63060493082593
  C   -0.01675440616907      6.16443817212857      9.44983746942119
  C   -2.34686605146112      2.36725375540651      1.78965894552837
  C   1.06600493980236      5.80084711728203      8.64062649701372
  C   -3.80922870621122      1.21668350130507      4.09622150655882
  C   -5.01767831710458      5.54798576915641      5.28960081917479
  C   -0.48243639551584      8.99886908846891      1.03181501636643
  C   -3.90838385582373      0.63506104623769      6.44133909200192
  C   -4.40234172309917      0.50023433964653      5.12906878714311
  C   1.43254976410816     10.41186549990998      1.51196792048913
  C   2.17626780158984      9.28481895777989      1.88649361245287
  C   0.10665383389128     10.26708986629477      1.08024931614461
  H   -2.16523388675414      6.39431776519906      9.53078774031544
  H   -2.45167531937327      1.61614617451100      7.71268662268060
  H   -1.51621736836471      8.87434386954456      0.71466589120939
  H   0.14185318158775      6.48323012050216     10.47737633174605
  H   -5.87451407197347      5.51153050435769      4.62262722736246
  H   -4.08054058053024      6.28052578756861      8.47471233428633
  H   -3.59532629313230      4.91848085463928      3.77024497718124
  H   3.20961206778268      9.39435986170742      2.21045258164386
  H   1.60988428529849      5.07561399844096      6.65276115437480
  H   2.17195304357717      7.12549772584605      2.09274000089947
  H   1.88658997604007     11.40007724332347      1.55123016291990
  H   -6.12292666380612      6.18309840147954      7.04146205139768
  H   -2.68995638257691      1.33108171504903      1.75644445347509
  H   2.08593407378683      5.82678581180563      9.01481319404197
  H   -0.46921135240754      6.77644963152761     -0.74681982065313
  H   -4.21052931554199      1.11741241708198      3.09058082268979
  H   -3.07264994564450      3.00906294960281      1.26884643059483
  H   -4.36026336714227      0.06966221934325      7.25480125332210
  H   -0.47198863015077     11.14130615927237      0.78890425701738
  H   -1.68366804303307      5.66306047184565     -0.02818357608435
  H   0.00840836877446      5.13710749645601     -0.20698873788089
  H   -5.24209548618223     -0.15898373682987      4.92113288455392
  H   -1.40554042017994      2.45761570688013      1.23669868796275
  C   1.20118452075777      2.71314957216992      4.19618224185218
  H   0.85786048268751      2.65422897139079      3.15877128987710
  H   2.27617314391188      2.51765961993632      4.26859859328993
  H   0.63442729407954      2.03764058000525      4.83683535593917
  H   1.26317068042834      4.74271019804899      4.10345595384348
