58
Coordinates from ORCA-job BAMJAB-oxo_1_1_tpss_d4_lanl2dz_631gpol_Co3.opt
  Co  -1.10925680985568      4.35055220839801      5.20704421257318
  S   0.06846916590590      6.00425415436560      4.12633872454992
  N   -1.63962649356707      3.75815720219348      3.50398065305738
  N   -0.58450768141796      5.12738424880404      6.92499777342534
  N   -2.60961921501750      5.68896920600662      5.41515648754385
  N   -1.58475516779276      4.60428543441992      2.44288404750646
  O   -2.18897460068995      3.11992718812062      6.12994221777407
  C   -0.83149419515882      5.69755310790722      2.64491771206667
  C   -1.40688779273740      6.08509180115689      7.42947333471677
  O   0.26541734933732      3.32621769597644      5.18696500832745
  C   0.07242323796403      7.72826095759536      1.65681093798950
  N   -0.78507101169729      6.57694448102341      1.61015782798962
  C   -2.56042101068136      6.40045859612854      6.57451404037797
  C   -2.02455354985246      2.50663538167415      3.24391134147640
  C   0.51797061288394      4.74415884719767      7.59136670670239
  C   -3.54650959271026      7.34607217975623      6.88631141431277
  C   -2.26360571555582      1.89472083244720      5.69288771567394
  C   -3.62641187963293      5.88489909292743      4.55668980148468
  C   -2.57411191288240      0.88315185377492      6.65304391659400
  C   -1.12224366665735      6.68892661970658      8.66074059406867
  C   -2.11011137482735      1.52563321837571      4.29466947395347
  C   1.45853765355761      7.56436311528725      1.81167381760752
  C   -1.54922270182555      6.29487999872835      0.37827642186980
  C   -4.59742587289935      7.55551827975559      5.99071293361507
  C   0.01829378689523      6.29326255120123      9.36576879462223
  C   -2.34523747938873      2.15974546553967      1.81005699875266
  C   0.85181973588897      5.30703743174066      8.82545879804806
  C   -2.17577158451786      0.14404662845832      3.96876089261893
  C   -4.64027009897105      6.81211580439552      4.80607157131848
  C   -0.49007269764923      9.00623739289939      1.51376618837070
  C   -2.62731288455163     -0.44594547369060      6.28442781895442
  C   -2.40577299362983     -0.82363185190679      4.93378853757341
  C   1.72751584367541      9.97538775440818      1.71091010884082
  C   2.28143689243742      8.69602259036348      1.84745530689864
  C   0.34348635960539     10.12849194223095      1.53972946526973
  H   -1.77729878370159      7.45683839565719      9.06214943055875
  H   -2.71958085011445      1.20337195922276      7.68151437274397
  H   -1.56726947690849      9.11428956944155      1.39996223480062
  H   0.25274437885431      6.75213698569929     10.32353171899837
  H   -5.44461891083089      6.93900860308920      4.08643299189176
  H   -3.49509410804307      7.90716756004614      7.81500434187436
  H   -3.60818498652917      5.28723473673204      3.65077453946373
  H   3.35617672148880      8.57372374753448      1.96439831276796
  H   1.10690891754287      3.98321244477372      7.08347230576474
  H   1.88092994952406      6.56457441552361      1.88280543738376
  H   2.37193031156122     10.85187590256371      1.73015066395838
  H   -5.37179657058560      8.28468008616547      6.21774486212613
  H   -2.88233132001772      1.21214143288655      1.73572989482174
  H   1.74796088553449      4.97597265877817      9.34321935002537
  H   -1.44331506263429      7.15864628881313     -0.28148090325537
  H   -2.01364310693553     -0.16695549953014      2.94052971389353
  H   -2.95631090194689      2.95480000328678      1.36919216928994
  H   -2.82462445346569     -1.20965795499362      7.03409951395500
  H   -0.08785405470076     11.12192411513225      1.43427566646262
  H   -2.60381594251906      6.12580352554632      0.61931105034015
  H   -1.15041052392219      5.40012723049243     -0.11456257572053
  H   -2.42376458108971     -1.87418303547901      4.65373373444438
  H   -1.42136018454412      2.10618089125023      1.21644957688527
