67
Coordinates from ORCA-job DUGPAX-CH3OH_1_5_tpss_d4_lanl2dz_631gpol_Fe2.opt
  Fe  2.71931395386421      5.19122483673149      1.80752142492537
  C   -0.09272558404162      4.47724851660690      3.98590729261931
  H   -0.72314897288867      3.91374713634096      4.67754289941787
  C   1.73907760518915      4.93576843640645     -0.05576089332724
  O   3.81917504076307      3.33576350755312      1.47628330401731
  C   4.52436833191629      6.35371695859913      3.93809681146515
  C   5.25217288776138      7.58920565369141      4.17124048705671
  C   -0.05884245068837      3.07306878130286      1.44339470048967
  C   -1.17685944717935      3.85022533160220      1.08215620462386
  H   -1.51690043841863      4.65596889597661      1.72926774203939
  C   -1.84699842266055      3.59788822613858     -0.12001264036606
  H   -2.70889670837652      4.20444521271109     -0.39155243628314
  C   -1.41017017951574      2.57251620493262     -0.96900371804080
  H   -1.93229477039618      2.37967425755931     -1.90405947342231
  C   -0.29664488733189      1.79637787912123     -0.61526244520353
  H   0.04569083699680      1.00004340830455     -1.27355363128247
  C   0.38544139475376      2.04841193691606      0.57924785468064
  H   1.26388591061421      1.45823899353717      0.83705121528454
  C   1.49919061136284      2.05869587229034      3.72042812369136
  C   2.66545854433704      2.13461915202433      4.51411835116814
  H   3.20049691292300      3.08215351157512      4.60137902187209
  C   3.11260956008241      1.00850085797889      5.21567945199593
  H   4.00728589374896      1.07241533973627      5.83249193439894
  C   2.40632862261687     -0.19869966949206      5.12222309522788
  H   2.75692797734986     -1.07632000866309      5.66186129809492
  C   1.24687451464755     -0.27827559810983      4.33699557819238
  H   0.69664290838236     -1.21511150604928      4.27178475257881
  C   0.79045234570354      0.84410728770635      3.63687383012098
  H   -0.10859959490779      0.77931471714977      3.02665658338394
  N   3.91754790256001      5.39103742420046      3.65364974897634
  O   1.32267770356190      5.02523341206355     -1.12104327456937
  P   1.00103082271119      3.57501552914719      2.83923087875015
  C   -0.09985260839356      5.82885541336662      3.97180042653697
  H   -0.73408121484374      6.38812881386400      4.66460432464778
  C   3.66899531774041      6.84110071408341      1.04607441734731
  C   -0.16487649485051      7.49271508897993      1.59393649153602
  C   -1.55396474168028      7.57889792797539      1.81669855288538
  H   -1.98588780703956      7.22195691837656      2.75003297884553
  C   -2.38859312229077      8.12674971491664      0.83657836357157
  H   -3.46082632367444      8.18840483236708      1.01419857083068
  C   -1.84536500301852      8.60485755219428     -0.36430887328227
  H   -2.49758796126318      9.03413354230250     -1.12251584811939
  C   -0.46422807475810      8.53168670087685     -0.58736909177442
  H   -0.03865612631593      8.90409057108169     -1.51725258990463
  C   0.37501407876960      7.96873982195457      0.38119591056133
  H   1.44682975681161      7.90329933358030      0.19783246950582
  C   1.63020163097164      8.09837200643616      3.82852483045011
  C   1.79766607887767      7.91281004696840      5.21625056717056
  H   1.48811700480310      6.97950500951665      5.68595161230160
  C   2.35362516916440      8.93185121361744      6.00017294757174
  H   2.45788074104655      8.79099271020579      7.07477290219106
  C   2.76660653304049     10.13173300987082      5.40179523947015
  H   3.19467659783316     10.92519812185747      6.01173423875398
  C   2.62360415818902     10.30949867389143      4.01765107320262
  H   2.94527259176091     11.23805063373326      3.55014316592395
  C   2.05912282329133      9.29972901544392      3.23100473438964
  H   1.94805197104207      9.44807027696021      2.15936327254716
  N   4.23040310111440      7.86193783257528      0.84906650961087
  P   0.97415392229912      6.73430452162304      2.80238671521131
  H   6.25964476704672      7.37922108977173      4.54965732605606
  H   5.31606454581148      8.10987297094290      3.20323031252139
  H   4.70324613622846      8.21581981454532      4.88492996342231
  C   5.10362876788598      3.57965952614501      0.82324768865871
  H   4.86414325494444      4.06822328175725     -0.12368312662698
  H   5.72547932017361      4.24301056313933      1.43588163306680
  H   5.60583302545526      2.62385201499389      0.64076578379101
  H   3.97941935838591      2.90033022449433      2.34155243455119
