62
Coordinates from ORCA-job DUGPAX-oxo_1_5_tpss_d4_lanl2dz_631gpol_Fe2.opt
  Fe  2.50866043389912      5.02959760181425      1.64857252643093
  C   -0.25255424159535      4.49171403211976      3.64924125037948
  H   -0.96525648766030      3.94909522391171      4.27497720806429
  C   1.19168265658195      5.20187696175416     -0.26343052803232
  O   3.31865068763922      3.76100379675437      0.92047916791093
  C   4.46478364454717      5.83605120712752      3.77238817676917
  C   5.52986447195756      6.80425785016571      3.96751412421828
  C   -0.09790690152708      2.76212682141436      1.27239900502866
  C   -1.50624670145263      2.77219554924442      1.28449956198705
  H   -2.04947187007573      3.24897967542011      2.09833524546689
  C   -2.21147622262350      2.16777240831038      0.23843720836669
  H   -3.29959094496678      2.17481521488542      0.24707433851363
  C   -1.51999153872723      1.55394724396274     -0.81560001127667
  H   -2.07446571284683      1.08585471242354     -1.62654647356530
  C   -0.11791559831735      1.54774590505660     -0.83286260143951
  H   0.41807582757414      1.07934830471487     -1.65576816204451
  C   0.59868029704255      2.15619574244793      0.20259773083257
  H   1.68849355207649      2.18314267014410      0.18069517673807
  C   1.57305527537558      2.26709118258399      3.65016398418978
  C   2.06020450059325      2.64902814293710      4.91784921863526
  H   2.00729138621369      3.68955112712341      5.23242750572249
  C   2.61313358466894      1.68826506801971      5.76765741493674
  H   2.98044601610983      1.98125409806274      6.74925419405419
  C   2.69633938414441      0.35052727804429      5.35430117029790
  H   3.13221054451266     -0.39517171969731      6.01624247309978
  C   2.21870494913922     -0.02910193154139      4.09256020786748
  H   2.27915459903582     -1.06798431247646      3.77496033225634
  C   1.65692002071732      0.92350073824642      3.23652722570914
  H   1.27663238450962      0.62292119119429      2.26302334555408
  N   3.57851975420498      5.10228722088550      3.54985347660747
  O   0.92744500288743      5.24469502814332     -1.37543013300362
  P   0.88249973922208      3.54819462050809      2.57399971083216
  C   -0.16583091442146      5.83637300948234      3.69406426286365
  H   -0.81188046842102      6.41906518328844      4.35535019092505
  C   3.49156264916917      6.59538948946501      0.97745991711444
  C   0.04281377822038      7.62147623780952      1.41752501305744
  C   -1.36376703291255      7.64098847552088      1.51362356584923
  H   -1.87043600530322      7.12452391065795      2.32634493762058
  C   -2.12263010994592      8.32245977541009      0.55634881720445
  H   -3.20771480035865      8.33338306458827      0.63862551096366
  C   -1.48923282268276      8.98818368140014     -0.50155988590818
  H   -2.08313134430327      9.51686636098317     -1.24447417658087
  C   -0.09215381737868      8.96660774924898     -0.60639888852373
  H   0.40439784548357      9.47504312203320     -1.43035792419768
  C   0.67585919326707      8.28193314195096      0.34131555370410
  H   1.75812780436701      8.25033143961145      0.23553214727776
  C   1.83408886580229      7.90139559519264      3.75744918010860
  C   2.00861829465783      7.55439311069614      5.11321956882881
  H   1.62213057010686      6.60841432648848      5.49125058494714
  C   2.67799624306157      8.42572935726041      5.97967829907673
  H   2.79331725499390      8.16166052245783      7.02939994594164
  C   3.18980092739788      9.63918903811458      5.49584013717891
  H   3.70757333598449     10.31834768052058      6.17060996486355
  C   3.02674926349352      9.98145900981445      4.14614645000140
  H   3.42000846221907     10.92340342521211      3.76946194802908
  C   2.35139674396491      9.11880484741606      3.27591520698308
  H   2.22718583277137      9.39631711528462      2.23278681519841
  N   4.15690281186671      7.54284552255090      0.74462862857937
  P   1.04847600806039      6.70608332322741      2.63124904940649
  H   6.47140762570537      6.30073773384731      4.21575651078021
  H   5.64143908627784      7.35850035478284      3.02340839277889
  H   5.25005222599581      7.50171574197623      4.76640720481962
