62
Coordinates from ORCA-job DUGPAX-oxo_1_1_tpss_d4_lanl2dz_631gpol_Fe2.opt
  Fe  2.23734141731840      5.16363325770473      1.28352652692559
  C   -0.38110108074711      4.66536096718385      3.37228678818978
  H   -1.09880425558762      4.13369183380462      4.00084134508933
  C   1.20824161836710      5.30338671047580     -0.18192345621754
  O   3.03993901719583      3.82335193246882      0.65629776331321
  C   4.17145598286976      5.21343426786041      3.70021086388857
  C   5.14492024274667      5.27326104507971      4.78056971068606
  C   -0.13507828872381      2.62269908427456      1.27111013434108
  C   -1.44741823106707      2.22190315648486      1.59813786088187
  H   -1.93242618073383      2.58323763717986      2.50243526609445
  C   -2.13785245645354      1.35011040427266      0.75117483100214
  H   -3.15220350005777      1.04652160747410      1.00202158830644
  C   -1.52616822790644      0.86894117799985     -0.41515606898046
  H   -2.06918819461143      0.19181903501740     -1.07149158867821
  C   -0.22045783249655      1.26046924898594     -0.73958155595836
  H   0.25417631178706      0.88901684431055     -1.64541042421818
  C   0.47680261211760      2.14090910678034      0.09472381491188
  H   1.49013595166050      2.45453418620948     -0.15762149882491
  C   1.70318449499422      2.68868948400901      3.55903298967751
  C   1.81036860152105      3.08603856539952      4.90634507381483
  H   1.28281833847057      3.97060839813293      5.26120308424559
  C   2.58578647021482      2.33405706742489      5.79629700006305
  H   2.64683663014346      2.62793813203003      6.84293170064471
  C   3.26844967562824      1.19631595597509      5.34207102724630
  H   3.86989476112499      0.61108019422773      6.03505807127131
  C   3.16933517129152      0.80490107200248      3.99898134383827
  H   3.69535645075325     -0.08044082780029      3.64795419767997
  C   2.38939884997907      1.54594821625088      3.10581991691979
  H   2.31599264047434      1.24036921246230      2.06419175326024
  N   3.38987812875225      5.17385568308196      2.84076798340392
  O   0.57901659204053      5.40213003705718     -1.14109188334148
  P   0.80616948599000      3.72013277808896      2.36397356792800
  C   -0.32012379893422      6.01096688046292      3.37171580266956
  H   -0.98385798314941      6.60315928507397      4.00578611558796
  C   3.21827611637216      6.68838230021296      0.69986214815992
  C   -0.04086915487713      7.94231059899641      1.22863114781830
  C   -1.43821100279821      8.05377654328925      1.39028978024903
  H   -1.95462158638148      7.49930968805365      2.17064760974501
  C   -2.18069074332418      8.87673507270267      0.53743435884004
  H   -3.25793903478856      8.95477355174777      0.67010190495931
  C   -1.54053798905198      9.59471827497624     -0.48084436248644
  H   -2.12094928129088     10.23468436969507     -1.14247973220422
  C   -0.15482313655980      9.48067213556393     -0.65182754555384
  H   0.34653730413778     10.02870215054759     -1.44694797159979
  C   0.59746900704529      8.65427959166639      0.18955790525494
  H   1.66849422660654      8.55733789958977      0.02803510004524
  C   1.83265230525488      7.88519112849295      3.52628691707676
  C   1.99929882779345      7.41007375290069      4.84361061408044
  H   1.53434921013862      6.47373294482832      5.15065678318814
  C   2.75062322867515      8.14755627727676      5.76516596086564
  H   2.85334909265069      7.79122274780541      6.78910925769994
  C   3.35491731475939      9.35069847669016      5.37181662112205
  H   3.93949283069187      9.92491714825337      6.08809315161878
  C   3.19789296321779      9.81948682887182      4.06050711264621
  H   3.66402817893802     10.75352563571795      3.75440715809353
  C   2.43790140178144      9.09398945120859      3.13669433068875
  H   2.32257616922123      9.46627357350576      2.12265789616199
  N   3.84610583457300      7.63903797843769      0.39734853986278
  P   0.92565546129068      6.85808636251845      2.32867409990459
  H   4.97408902424450      4.44203040633495      5.47558883429746
  H   6.15843230250083      5.20063534264361      4.36743631234375
  H   5.03538171420633      6.22822813002426      5.30929642145925
