63
Coordinates from ORCA-job AGOBED-oxo_2_4_tpss_d4_lanl2dz_631gpol_Mn2.opt
  Mn  11.70401542609398      1.67716564645990     19.62243603050564
  O   12.12837130183082      2.67400541988167     18.36394918181748
  O   12.90338217279414      1.99627219165462     23.99326281858785
  O   9.21283968454187     -2.11852218644293     19.44958837403236
  N   11.19579009962194      0.38166693019919     21.20865051849632
  N   11.38750505141817      3.22174441969031     20.87570965311063
  N   13.60066942940751      1.82483592702699     20.44737528649669
  N   11.96773317654412     -0.00265967613376     18.43961010237313
  N   9.81488965494610      1.47557318268985     18.95351448129642
  C   11.85754538945820      0.52235733368831     22.37585046410491
  C   12.09474995860537     -0.55830268519943     23.22987313938994
  C   11.59049599595373     -1.81294878640549     22.87946576412191
  C   10.84851374045542     -1.94439445813800     21.70314073059365
  C   10.65626904856956     -0.81612041845640     20.90143584858800
  C   12.51413676846120      1.87334096545000     22.64332476832051
  C   11.84445798433192      1.91089966018779     24.99150162537688
  C   11.74324154903579      3.13000746536465     22.18218523309785
  C   11.63393719063436      4.23632726298505     23.02991150532551
  C   11.10810376001058      5.43706309739977     22.54189217295276
  C   10.76701291252215      5.52627214822276     21.18983126921155
  C   10.95098905263742      4.40653266255546     20.38397814228463
  C   13.79345451816413      1.87711778210528     21.79072312335444
  C   15.05847787509763      1.99564121751310     22.36152991726668
  C   16.17136092875234      2.08220785027257     21.51550576181720
  C   15.97194359479917      2.09043117066881     20.13107727645253
  C   14.67376266433801      1.97641545762412     19.63550725268521
  C   9.98654292607665     -0.94341505229615     19.53642194002873
  C   8.11769144812216     -2.25674169106399     20.40192999515948
  C   11.14309833330873     -1.07775816981639     18.53154424329729
  C   11.28969345132747     -2.20435959726741     17.72557815644990
  C   12.31586086153220     -2.21957093271252     16.77245637869119
  C   13.12984764293761     -1.09050597039562     16.63411580533388
  C   12.91542765589383      0.00252011882636     17.47255981407109
  C   9.18074083591349      0.27865408419220     19.04180172211590
  C   7.91126017495428      0.10253836596824     18.48340099468120
  C   7.26621628338727      1.18042133120262     17.86807489578696
  C   7.93964196686496      2.39989002774389     17.76044577307777
  C   9.22407128274460      2.49699973488274     18.28785992927598
  H   12.70957825573523     -0.42369957312696     24.11267156707310
  H   11.78924861733174     -2.68038743538652     23.50484692107911
  H   10.47466515728245     -2.90874930361296     21.37823717674904
  H   10.86897121978446      2.17853323067516     24.56809669378449
  H   11.79558490481930      0.90126797223029     25.41217355812415
  H   12.11898515591404      2.61591143667879     25.78086394523359
  H   11.99622484691254      4.17032078867031     24.04847996728868
  H   11.01201608903781      6.29791855045586     23.19962204384863
  H   10.40742162156013      6.45231459213189     20.74975355788348
  H   10.81777096884706      4.44718252935216     19.31089336715588
  H   15.14876912772320      2.03552360477042     23.44191907387872
  H   17.17141656948210      2.17306362189730     21.93352908576391
  H   16.80077648519633      2.20386617341202     19.43761764452606
  H   14.45402889501223      2.05348465612898     18.57786957893279
  H   8.41001672608065     -2.91785096951571     21.22421165083419
  H   7.80788744791201     -1.28484121372640     20.80433367775644
  H   7.29303365557190     -2.71599172851146     19.84984059758695
  H   10.59723012488363     -3.03120196632661     17.84326891580078
  H   12.45404730574231     -3.08672872278005     16.13053069742978
  H   13.90745822607368     -1.03918462387108     15.87689175960836
  H   13.46474379120638      0.92875575472173     17.35878052350015
  H   7.45122184423599     -0.87776099441758     18.49383972575522
  H   6.27404709218821      1.05151513629455     17.44160066269590
  H   7.50528349473801      3.25064481918810     17.24268089413254
  H   9.83903058463894      3.37409183453955     18.13532662394631
