68
Coordinates from ORCA-job AGOBED-CH3OH_2_4_tpss_d4_lanl2dz_631gpol_Mn2.opt
  Mn  11.67026537718951      1.54819442520257     19.79546085083221
  O   12.31806823151666      2.92779936973939     18.04576996891101
  O   12.78633965617734      1.90294923942076     24.17918553153605
  O   9.10517640210440     -2.17583703373617     19.62019768657744
  N   11.02365743133045      0.28903419545507     21.45394040100133
  N   11.31540055438980      3.12809830187131     21.02909238250036
  N   13.56744667033482      1.65127792998471     20.64172370180243
  N   11.92945569961314     -0.13007590426490     18.60386513533785
  N   9.77430767171008      1.40670007594111     19.07748004230855
  C   11.78709729315429      0.40304065511514     22.55691718969457
  C   12.16917047274436     -0.70871349373167     23.31509428799422
  C   11.72375839487547     -1.97273094583355     22.91520782304027
  C   10.93297431874074     -2.09105611824739     21.76766839953988
  C   10.59392177006912     -0.92750843394137     21.06945197888037
  C   12.42039648460721      1.77070898113192     22.81800418992971
  C   11.71644136921027      1.72226098788828     25.14739207922814
  C   11.66380593573868      3.02967859789547     22.34250986035545
  C   11.52895307372227      4.11990258203755     23.21050222482640
  C   10.98934205731037      5.32209611002803     22.74618679514275
  C   10.62956141213539      5.41945759196093     21.39875491003657
  C   10.81942251401387      4.30960733846974     20.58225301386354
  C   13.71937691389896      1.76405588545252     21.99248002927937
  C   14.96595599428150      1.88025929871544     22.60754098314807
  C   16.11604408533183      1.90475336588793     21.81201155796057
  C   15.97265094686098      1.82140079417855     20.42233702593546
  C   14.69394459927531      1.69598061172549     19.88525674037297
  C   9.90798074975622     -1.01362461130301     19.70600626431469
  C   8.08549322545870     -2.32239471065810     20.64697914417817
  C   11.05352069605548     -1.17257291122229     18.68856514182536
  C   11.15298637020558     -2.31111979315321     17.88864758057594
  C   12.17410784740618     -2.38575459084497     16.93599503763110
  C   13.05124023777480     -1.30250824894834     16.80648480138762
  C   12.89487547874144     -0.20668234728945     17.65142708164679
  C   9.12003576197611      0.21754485990148     19.20162405078353
  C   7.83167656239476      0.04557355098501     18.68132727225891
  C   7.18400716807856      1.10892679917410     18.04730020257734
  C   7.86824299496665      2.31905245421948     17.89853653892279
  C   9.15582210165623      2.41738044963532     18.41529366233435
  H   12.83586369198733     -0.58734885701724     24.16346869868324
  H   12.01628618004054     -2.85928646810702     23.47349121380392
  H   10.62332474112581     -3.06204475397620     21.39327947575739
  H   10.77381162241510      2.15737281138084     24.79237543142081
  H   11.56218152316088      0.66084939846141     25.37071845213438
  H   12.05528114587385      2.24113121044369     26.04736258003507
  H   11.88286726442803      4.03575370135010     24.23104219763582
  H   10.87708461758771      6.16951251230734     23.41837089866825
  H   10.22786468004537      6.33770435139346     20.97862502960423
  H   10.60000446889753      4.35939813645594     19.52328392581910
  H   15.01232937594198      1.95781564444310     23.68864555146111
  H   17.09951548725857      1.99542811361436     22.26730016298821
  H   16.83314322850967      1.84924882411072     19.75908571838723
  H   14.54740965637713      1.64097427947209     18.81324046921792
  H   8.48838351594795     -2.83036666291425     21.53003378461039
  H   7.67214215529300     -1.35061567425965     20.94474133214705
  H   7.30595894261512     -2.94040623984044     20.19427970359531
  H   10.42670390626524     -3.10671241889099     18.01686268826948
  H   12.27260363375060     -3.26271969276051     16.30048812829279
  H   13.84702639913537     -1.30053123441964     16.06626886406627
  H   13.54384601965870      0.65776900120340     17.56562642709931
  H   7.35850277214385     -0.92730969052070     18.73548454619360
  H   6.18003427379888      0.98116672146612     17.64955862342570
  H   7.42777552615955      3.16571081385110     17.37871348977347
  H   9.74467198251954      3.31602682023651     18.27246776506204
  C   13.14627539170652      4.12929326264654     18.03828118891077
  H   12.57618341898974      4.98342086875072     17.65559931849416
  H   13.42618225964369      4.30155032226259     19.07935542736897
  H   14.04352935137613      3.97152756229696     17.42916898192756
  H   12.03234824253826      2.72855202771668     17.13163835667314
