62
Coordinates from ORCA-job AGOBED_2_2_tpss_d4_lanl2dz_631gpol_Mn2.opt
  Mn  11.63363457846534      1.57816634529783     19.76141821098328
  O   12.69999948624150      2.12742021569375     24.04836669957800
  O   9.50344380258861     -2.30528326185872     19.38562741496707
  N   11.19796881846823      0.35989110161156     21.22366661620644
  N   11.36914182969386      3.22635631044791     20.81678853051453
  N   13.55012632494374      1.71987854686608     20.53961709095795
  N   11.99334798585766      0.10652126143320     18.40339934349981
  N   9.72935636774668      1.36529572316163     19.12743411506430
  C   11.73859310488906      0.59578943512672     22.43839839388924
  C   11.93108292888974     -0.44516465679544     23.35152369156473
  C   11.54159113119177     -1.73834839062305     22.99161973653066
  C   10.94267122010033     -1.95896035494881     21.74751584811261
  C   10.75460387991621     -0.87376020132325     20.88976227210624
  C   12.37891376366898      1.96533775890975     22.68302739357491
  C   11.57134215461702      2.16409809396912     24.96759109228802
  C   11.70528245043626      3.23507372341032     22.13160290359129
  C   11.71242111249478      4.42131114876509     22.87659913362274
  C   11.33431844544760      5.62206149979589     22.27172891885334
  C   11.02148066926480      5.61870647504368     20.90689586623477
  C   11.06581249063110      4.41175702962211     20.21897822097686
  C   13.69438821546100      1.90482907454790     21.88415008905747
  C   14.93101700832891      2.04422882282735     22.51072299402237
  C   16.09139668453985      2.00026141058924     21.73030521508187
  C   15.96322126894774      1.81606572492762     20.34975746162415
  C   14.68915156052195      1.67753212562524     19.80200007606087
  C   10.15735038245167     -1.05955732990698     19.49143750771615
  C   8.36576861791483     -2.54429946726439     20.26537359383296
  C   11.28821077273409     -1.05460453841939     18.45776823391799
  C   11.48704992873780     -2.10809088648542     17.56573073185338
  C   12.42685729533829     -1.95273266596922     16.54118311496624
  C   13.10130501556941     -0.73097408704786     16.42314365019351
  C   12.85835431936793      0.26396946661589     17.36679326460686
  C   9.24347766526356      0.09791152584904     19.03245736682710
  C   8.01939069267428     -0.17816157067522     18.41672493738643
  C   7.22358181608398      0.87322851027209     17.95414900437019
  C   7.68542968015354      2.18224027604948     18.11840380074496
  C   8.93632836281159      2.38062636534632     18.69569851857559
  H   12.44453878972065     -0.25236144792704     24.28712111254748
  H   11.72468934373421     -2.57172000509094     23.66628544662606
  H   10.66792169373377     -2.95618392923228     21.42338881283498
  H   10.72003634908337      2.70456734842828     24.53640274607418
  H   11.25328245318056      1.15259230783413     25.24329624485283
  H   11.94053254971511      2.68641819141824     25.85322835183920
  H   12.05233077189503      4.40525802290260     23.90573927620290
  H   11.32403494770966      6.54654746956699     22.84391741006770
  H   10.77300745266789      6.53333867303422     20.37533651809177
  H   10.89930452415420      4.38330341313811     19.14467302266445
  H   14.96395453304870      2.18351887669891     23.58639095985372
  H   17.07075637680241      2.10557176791296     22.19125751544270
  H   16.83215011235228      1.77489163952864     19.69848353187404
  H   14.56860533332672      1.52041379887310     18.73733313199836
  H   8.64351947702819     -3.27327927527975     21.03337271570456
  H   8.01904475121691     -1.61936338381995     20.74080239437137
  H   7.56972055620024     -2.96790749041307     19.64606201326512
  H   10.89804340359626     -3.01240910389302     17.67672914118492
  H   12.60837894153649     -2.75832046409049     15.83356983016838
  H   13.80287965095346     -0.54478541323773     15.61444375242213
  H   13.34413155459259      1.23339665990826     17.28485499015880
  H   7.70897905536326     -1.20781233869894     18.28465011627689
  H   6.26831525520796      0.67170734168707     17.47525674928089
  H   7.10404722713192      3.03948379984880     17.78991529908177
  H   9.32638306359300      3.38271298041541     18.81742786315716
