47
Coordinates from ORCA-job CIBKIK-CH3OH_0_1_tpss_d4_lanl2dz_631gpol_Mn3.opt
  Mn  6.89628165701246      4.28106985663581      2.61370830170316
  N   8.56663288658471      4.97135665943914      3.39681674151139
  N   5.96002716055607      5.90458290580777      3.24678158136214
  N   6.52673755086616      3.40560874203562      4.22181288487096
  O   7.80600194562509      2.92931000872850      1.70585586286006
  O   5.25511531541029      3.67053154699900      1.87350740126131
  O   6.86399772397575      5.32164584306932      0.73993516171337
  S   4.99046479803985      2.41522204479804      6.37291861569196
  C   10.11512603232864      3.50976442990898      2.19921903508386
  C   9.09355643763981      2.77106679350118      1.52234374656052
  C   9.52878836601177      1.80849050014230      0.56516610857373
  C   10.86183725576128      1.54713795555620      0.30850736283923
  H   11.15083155301562      0.80216934894188     -0.42712568014033
  C   11.83273272027874      2.27319318497244      1.02557468994514
  C   11.48864629006074      3.23543229111612      1.95284734157657
  H   12.26383822380126      3.78461785523671      2.48257057230890
  C   9.77133363203835      4.50597370518717      3.16949518853343
  H   10.59230745414171      4.88829390921278      3.78728016052799
  C   8.39301382322698      5.81654460638525      4.59237909661775
  H   9.34701774345726      5.91362530246406      5.13051863096612
  H   7.68964384304150      5.27189976773204      5.23534101825932
  C   7.83114879675763      7.20850892057525      4.26916096916493
  H   8.62844205182632      7.86969217269597      3.90275580986739
  H   7.45455006160859      7.63698071631280      5.20809073741294
  C   6.70656532030616      7.17060801632875      3.21503137196995
  H   6.01912287063359      8.01768014659677      3.35340563341447
  H   7.13068416496894      7.23967778679106      2.20677596526767
  C   4.70334703738179      5.91120196709779      3.60633896420029
  H   4.28414569173942      6.84467769894639      4.00075574433699
  C   3.80671069899975      4.79692853601674      3.46725218639561
  C   4.12735062878550      3.73662386896241      2.55962079568341
  C   3.14118026147741      2.73381313989950      2.37163068204554
  C   1.93390690260929      2.73395698396521      3.04978498918474
  H   1.21854032476219      1.92933360939800      2.90784131724167
  C   1.66403613351151      3.79166854998278      3.93593712617675
  C   2.55819139875729      4.82469018500890      4.13856147159690
  H   2.31605268216670      5.62943802933574      4.82829010536920
  C   5.86102312970966      2.98218009244972      5.12565533950777
  F   8.57239883555497      1.14846671641573     -0.12505206173714
  F   13.14201275636497      2.00997898499366      0.77605310312577
  F   3.42030607127236      1.73463075703329      1.50933894872639
  F   0.47788400123157      3.78785693530159      4.59441521808292
  C   7.78567367806383      5.01270333254432     -0.33909183644176
  H   7.53061821796099      5.63322952020820     -1.20700419859621
  H   8.78284483161334      5.27194907746308      0.02432025418778
  H   7.74408247515873      3.94898597267967     -0.59304707330003
  H   5.99261856390275      4.89827102512584      0.53996461448917
