42
Coordinates from ORCA-job CIBKIK-oxo_0_1_tpss_d4_lanl2dz_631gpol_Mn3.opt
  Mn  6.84474380544440      4.31264666970559      2.23226140760753
  N   8.51445197139761      4.90198380195006      3.14299145222293
  N   5.85488556204013      5.92627073572535      2.94819365610935
  N   6.47126795147232      3.53561197455876      4.06958554396062
  O   7.63305649783121      2.72338617262040      1.63634825435901
  O   5.24676621030336      3.49695118316403      1.74955657944725
  O   7.24091345459916      5.20693106566814      0.96590314512324
  S   5.39521814974077      4.01069781695536      6.63643160468298
  C   9.95270794589636      3.45903321157024      1.81007447305543
  C   8.89964317467642      2.61314398690710      1.33101334347524
  C   9.28533449327807      1.53832862407611      0.47230927926678
  C   10.59324062233154      1.32311969112873      0.07633461188819
  H   10.84161366751400      0.50684318034768     -0.59558286331420
  C   11.58975891743674      2.18622097505964      0.56622233332594
  C   11.29805614760570      3.22719428862125      1.42838236659044
  H   12.09729663138542      3.86120424373644      1.80523666534297
  C   9.69012599909654      4.48166127855697      2.78727592877617
  H   10.56326572080610      4.91529862342138      3.28946802264304
  C   8.38490308185190      5.88240633701205      4.22706170255199
  H   9.36333104279236      6.02524206078830      4.70827149352077
  H   7.70301847509330      5.45496139558759      4.96902326557502
  C   7.85661431344590      7.24635656916620      3.75130393618263
  H   8.63828285785315      7.76551319606475      3.18174645059047
  H   7.67104328440379      7.83508934758334      4.65971795018514
  C   6.56627659939286      7.20824327496449      2.88714311983630
  H   5.88769855904361      8.02164583004834      3.18151013407749
  H   6.82721546583090      7.34270270635003      1.83113980877083
  C   4.61325857756877      5.89656390952268      3.32307652804732
  H   4.16300151892324      6.81633591582478      3.71435566875719
  C   3.75525709790496      4.73920209817746      3.23080610020285
  C   4.12445889429830      3.61827847074188      2.41943859227074
  C   3.18442787512726      2.55164624639331      2.33181967205863
  C   1.96830481659529      2.56507049226635      2.99657723377586
  H   1.28359518486696      1.72595421802269      2.91793825076426
  C   1.65561176194476      3.68288251213787      3.78511811070847
  C   2.51402666814829      4.76593335119219      3.90228572630849
  H   2.23922536781638      5.61111274762309      4.52807216623126
  C   6.00974032470959      3.72023485321529      5.16143319863091
  F   8.31390905076850      0.72334652564575      0.02391991072706
  F   12.87166161563785      1.97112523773838      0.18098363098333
  F   3.51204028164098      1.49177976266974      1.57348827634395
  F   0.47235036148493      3.69574541749002      4.44236326833600
