47
Coordinates from ORCA-job CIBKIK-CH3OH_0_3_tpss_d4_lanl2dz_631gpol_Mn3.opt
  Mn  6.88672003157621      4.27126969120238      2.58605611689844
  N   8.55165567422793      4.93494024860376      3.40334759813470
  N   5.94688546138557      5.88212760665477      3.25766588886492
  N   6.50328577767004      3.34540834204787      4.17525320162021
  O   7.80237173861242      2.91765713853037      1.70017884043132
  O   5.23787101486180      3.72902772530683      1.81943624254702
  O   6.90273513588028      5.35179251966195      0.74401768832054
  S   5.18650840068864      2.94972810457706      6.64183932810598
  C   10.11085229003729      3.49317106765452      2.19735192559829
  C   9.09146332457651      2.75961767452435      1.51454081890613
  C   9.52569623900833      1.80305509255737      0.55280061627899
  C   10.85933234497041      1.54674485402380      0.29290673906918
  H   11.14864127136006      0.80777094160280     -0.44859476071080
  C   11.83000161549821      2.26917956323462      1.01397657090358
  C   11.48529751604537      3.22313822665697      1.94893203896060
  H   12.25940439388287      3.76937620261817      2.48310350253314
  C   9.75988542016570      4.47642608097172      3.17636028772986
  H   10.57470096465711      4.85708566851884      3.80239229021090
  C   8.37073608440222      5.77131598539991      4.60497499172498
  H   9.32182162388927      5.85498326513711      5.14983468061294
  H   7.65965318791951      5.23129822748150      5.24211639845789
  C   7.82652985466881      7.17096464737926      4.28875930703939
  H   8.63042771698901      7.82218884905161      3.91914991607518
  H   7.46101142465759      7.60098795168033      5.23125109721112
  C   6.69483238911750      7.14908425920171      3.24182739213680
  H   6.00582597327601      7.99114780925664      3.39957298313903
  H   7.11057199956705      7.23601359547272      2.23158910644727
  C   4.69270309867910      5.88364082914695      3.62740923313991
  H   4.28081359571391      6.80920619758151      4.04567737356140
  C   3.79363532543703      4.77557826108770      3.46375311997314
  C   4.11333299462187      3.75162294436823      2.51857970802941
  C   3.13411055645741      2.75079944186462      2.29959029306391
  C   1.92888278612670      2.72350272265766      2.98277655481917
  H   1.21473805438162      1.92300096490715      2.81327979344039
  C   1.65950211015971      3.74605974673685      3.90912914694786
  C   2.55108425817334      4.77413454360444      4.14617928166210
  H   2.31410847933966      5.54815272482338      4.87147727663914
  C   5.94254441672511      3.19330989891269      5.22464397393932
  F   8.56925685923913      1.14611592003569     -0.14096492704355
  F   13.13959380309071      2.01010382808341      0.76029275285627
  F   3.41082957404330      1.78517004711377      1.39844527221140
  F   0.47723952640122      3.71170693844910      4.57393765980270
  C   7.79452780756207      5.00262360710799     -0.34932306698763
  H   7.53994682863013      5.62177015457247     -1.21803445864746
  H   8.80515077772771      5.23627928965928     -0.00739792361571
  H   7.71525821786939      3.93802871330210     -0.59086789863112
  H   6.00539206002869      4.98496188697575      0.54301602759158
