41
Coordinates from ORCA-job CIBKIK_0_5_tpss_d4_lanl2dz_631gpol_Mn3.opt
  Mn  6.86228200584789      3.67926776467613      2.92182502920769
  N   8.56798713563266      4.64187640188221      3.37663694025871
  N   5.98902400005110      5.62709374561185      2.79371187943793
  N   6.44950041646422      3.37431676125044      4.79806206268403
  O   7.73915713759719      2.91355708314339      1.41685441954454
  O   5.24683930831879      2.98599838111886      2.34912032805578
  S   4.46728349285075      3.75942056647137      6.76911016898162
  C   10.06206881549568      3.50247299433607      1.81765891506917
  C   9.01268691592726      2.81386591060074      1.12806103919390
  C   9.40822398539590      1.97946007987923      0.04124042433641
  C   10.72859370378138      1.81542209285861     -0.33649356484887
  H   10.98824310666453      1.16266358820785     -1.16511239797029
  C   11.72721852996599      2.50946337372733      0.37485386893839
  C   11.42236790091536      3.34380222198040      1.42915659628505
  H   12.21336857315291      3.87108845406335      1.95765738302381
  C   9.75543852366350      4.41355978103764      2.87789719446568
  H   10.59750871396066      4.97948537881191      3.29571432894063
  C   8.41028650462979      5.69588195557725      4.39420077482792
  H   9.38143874217500      5.90650888264903      4.86488383348939
  H   7.73580127810875      5.29321184126347      5.15526518690879
  C   7.82093757509056      6.99795737372880      3.79186397964300
  H   8.63199436576246      7.65665572462371      3.45062881176306
  H   7.28533753578844      7.52423177990926      4.59325199705042
  C   6.87474480010096      6.77497125299560      2.59175915168389
  H   6.29522172386008      7.69218336928439      2.40244789642711
  H   7.47032566854872      6.56009970684839      1.69417322703772
  C   4.71465056568016      5.81121866036901      2.96499663313365
  H   4.32334751297400      6.83834112861837      2.99298243316682
  C   3.74531166146676      4.75147600114883      3.11643088631419
  C   4.07316968062965      3.39349733150261      2.81251721912792
  C   3.04163296574278      2.43325777368748      2.96982464927340
  C   1.76472975040950      2.76373827682115      3.39725043840454
  H   1.00721939608250      1.99560233578828      3.52191404972520
  C   1.48356667855305      4.10941093698877      3.67736851204198
  C   2.43729032848388      5.10056860566410      3.53366659447284
  H   2.18916573140740      6.13304247155899      3.76782652281993
  C   5.58864642043098      3.52881497619362      5.62926850631983
  F   8.43759012035695      1.32662079450453     -0.62822328845004
  F   13.01891112215313      2.34158641721918     -0.00773347003718
  F   3.33489964469135      1.14795871904966      2.69139575510594
  F   0.23488796118691      4.43434910434779      4.09538508414527
