41
Coordinates from ORCA-job CIBKIK_0_1_tpss_d4_lanl2dz_631gpol_Mn3.opt
  Mn  6.86094150928087      3.83569209685024      2.89400571740175
  N   8.58081939863006      4.74612758463479      3.34037215472893
  N   6.02065093952779      5.60297676389079      2.81460633176877
  N   6.50377756966098      3.54377577272825      4.72752896529946
  O   7.73331014411445      2.83586868537445      1.58901221827905
  O   5.27251356631332      2.99728255628874      2.40794228908733
  S   4.60348261909356      3.25303698663074      6.79265704278429
  C   10.04687917883457      3.55522083124358      1.79910320035893
  C   8.99850886382608      2.77457641991757      1.22531063940620
  C   9.36671151366153      1.86756951239519      0.19352473566900
  C   10.67217541158265      1.72465302066003     -0.24930882296055
  H   10.91413661411405      1.01771022286903     -1.03761533265960
  C   11.67205487947686      2.51207484348534      0.34732424824892
  C   11.38725495034198      3.41616481648193      1.35311050509635
  H   12.18319173603452      4.01126478950390      1.79511572182679
  C   9.76152270034718      4.50565619905972      2.83742170789764
  H   10.61565179607832      5.06928623889372      3.23248882970338
  C   8.46725625468551      5.78461475266674      4.37738334978046
  H   9.45848552748004      6.02743781340866      4.78649714374215
  H   7.85225635553417      5.35370195646870      5.17305106849502
  C   7.79087337665981      7.06108742699685      3.81410349039036
  H   8.55273418047508      7.78261852745636      3.48708725000856
  H   7.21197419574364      7.53293650785220      4.61871683814655
  C   6.87654578088690      6.78228161662604      2.60710554202972
  H   6.25324721320447      7.66358969237285      2.39704919955564
  H   7.48761937497006      6.58265207285498      1.71778835181784
  C   4.73546396557545      5.78145873734468      3.02145768711396
  H   4.36977975198708      6.81336800549260      3.08024485332402
  C   3.76124663056430      4.74423042856073      3.15359234082161
  C   4.08844608761894      3.38970086114572      2.80926079841233
  C   3.03185807709342      2.43639203535553      2.87813486136164
  C   1.75422234190588      2.76580647645329      3.28852717026902
  H   0.98254028945120      2.00525389591131      3.36291447541578
  C   1.47941532469798      4.10720309130817      3.62135348186645
  C   2.44016884233037      5.09320881562537      3.54643474853903
  H   2.19177003541119      6.11974745649347      3.80490163647825
  C   5.67510440929887      3.41485659070464      5.59464758148158
  F   8.39350397121075      1.12168231956790     -0.36415492054469
  F   12.94867664863664      2.36922603268048     -0.08972136403385
  F   3.32215894120125      1.16201424338961      2.55331029198965
  F   0.21996903245789      4.41999330235489      4.01701397160211
