53
Coordinates from ORCA-job COLDIS-OH_0_4_tpss_d4_lanl2dz_631gpol_Mn3.opt
  C   4.71034849530256      5.51340124823176      2.98958169734610
  C   3.71430023254429      6.43373218495375      3.39403993130891
  H   4.01732693632549      7.45871241086611      3.59225999978284
  C   2.39110399751702      6.04102657209083      3.54838148602673
  H   1.63804895176270      6.75779377107498      3.86652983499472
  C   2.02259436004863      4.70627887158598      3.29385521508779
  C   2.96951519312074      3.77702407136934      2.89407999465354
  H   2.67963815027449      2.74498387336150      2.70723241805750
  C   4.32103896395223      4.16152295227990      2.73263744664461
  C   5.26477551824655      3.15000216864816      2.34631333365105
  H   4.87904191097654      2.12938418495193      2.23889532371840
  C   7.44476665303866      2.25127338363895      1.81405484843924
  H   6.91834662229357      1.43126939058400      1.30657627844533
  H   7.86785630301065      1.89067377140138      2.76115942184004
  C   8.57169554269284      2.83390044598199      0.94234591714134
  H   9.39962672002714      2.12146034478504      0.82101344923093
  H   8.17774748353937      3.12631777456836     -0.03858126267461
  C   10.22994941997475      4.26695061511351      2.01172186949844
  H   10.99378369876235      3.52056801549037      1.76324390856988
  C   10.65264831171144      5.42935217475489      2.73990487307512
  C   9.78292067691642      6.55528995887152      2.93759856393711
  C   10.29258574744344      7.68672143809344      3.62058918388492
  H   9.62482306264785      8.52742468881609      3.78169525147719
  C   11.58777464824370      7.69911374000667      4.11635278400760
  H   11.95584249865730      8.56147782803226      4.66630265187950
  C   12.42861727327338      6.58434998653874      3.92013560479292
  C   11.97995735864904      5.46977343951533      3.23182562275226
  H   12.63795717468731      4.61685578948117      3.07834546847447
  C   7.97758106733381      6.23417424702814      6.00871006510948
  C   7.28190119985449      7.41800776986958      5.69588626098992
  H   6.36278987361298      7.35820702844444      5.11735532764655
  C   7.76919406291107      8.65768340768630      6.12443843658900
  H   7.22195200806642      9.56860913191583      5.88327435220483
  C   8.95559939937631      8.72801557684485      6.86993501496026
  H   9.33025875806854      9.69353983755530      7.20891156006487
  C   9.65422121399598      7.55449780947860      7.18372013105782
  H   10.57538090103597      7.60533793773832      7.76326925387028
  C   9.16964037107354      6.31375089274940      6.75287067661843
  H   9.70977377315318      5.40026185341831      6.99354524080396
  Cl  0.33916238224171      4.21829841423625      3.48733523597538
  Cl  14.07111252041660      6.61786614677583      4.56395658590269
  Mn  7.47305294944790      5.10722149826173      2.26810501281408
  N   6.52602600331744      3.35468430965791      2.12493466857725
  N   9.00729547104477      4.04548138093650      1.63185079028386
  O   8.04812355394133      4.46262272914815      3.98915782360755
  O   8.16377568784136      3.52416198264725      6.27130071591084
  O   5.86673263095927      4.50951292928712      5.49266055317376
  O   7.08893974325197      5.45100883226286      0.52404677737657
  O   5.94726246113178      5.96800063361995      2.86166902131031
  O   8.55461341829285      6.61127302999776      2.46407037875993
  P   7.35091221727204      4.64953104034548      5.38310819393990
  H   7.58170796805086      3.22459867918123      6.99838715622148
  H   6.28023845866646      6.00638780582437      0.51808965018675
