62
Coordinates from ORCA-job CUKMIF_1_2_tpss_d4_lanl2dz_631gpol_Mn2.opt
  Mn  15.25043076697354     11.25642592424535      3.00635758462793
  Cl  14.63747072760527     13.39249694010808      3.35102942009260
  N   16.09736261055246     11.16906422244521      4.76313825251700
  N   14.42708996104083     11.14273275437723      1.21753672074121
  O   16.37660310134281      9.88510304018268      2.28989591240915
  O   14.07616939386578      9.95623945466024      3.77914142324854
  O   13.22696558689483      8.65506366723912     -4.53962504313323
  O   14.99129007268185      7.44571381104521     -3.62974131555332
  O   15.21531804097012      8.02147017661149      9.93405017530069
  O   17.05577688421318      9.18357526477418     10.74981175557430
  C   16.03377939342398      9.44380897365256      1.12187406362746
  C   16.70569724019307      8.36411385519644      0.44839938672087
  C   17.79175928338698      7.70928091000022      1.07186529527458
  H   18.09879933252955      8.04547821035017      2.05934330416240
  C   18.44081100086611      6.66369740917627      0.42866166985298
  H   19.27883662887477      6.16014039811087      0.90560715844520
  C   18.00391368034379      6.25756217624616     -0.84723176457270
  H   18.50715391411605      5.43695376103135     -1.35496269179906
  C   16.93224858217641      6.89098113820156     -1.47718253888124
  H   16.62006528907920      6.55661375855658     -2.46047386154442
  C   16.25525788800801      7.96132295856591     -0.85267303759196
  C   15.13818517108981      8.66431195251964     -1.48268187258184
  C   14.60301891736781      8.40353703455651     -2.74250863633408
  C   14.14660957042462      7.58276398550095     -4.80101876141920
  H   14.77447919603043      7.83631123833692     -5.66171652571614
  H   13.59320401369663      6.64976651137390     -4.94852096808374
  C   13.52531104722502      9.14476261702814     -3.29996292614102
  C   12.90946305767844     10.19154238847156     -2.65834633351989
  H   12.09433477342386     10.74714516521049     -3.11222807335929
  C   13.40900266215616     10.51375770482656     -1.36335537546763
  C   12.89593590915587     11.57784805040057     -0.57918186014522
  H   12.08110243765737     12.18627544246340     -0.96504630079008
  C   13.41761953228883     11.87093386669526      0.67528061412431
  H   13.05506200482467     12.69548637822475      1.28191734441048
  C   14.93659835015192     10.10999320431596      0.48468616681796
  C   14.49109745257701      9.75287569358391     -0.80163239491485
  C   17.15558440812663     11.86928075228502      5.24430368622742
  H   17.58112550351471     12.61210789681056      4.57606939118557
  C   17.64608496936042     11.66428186041695      6.52688932160363
  H   18.49713829930795     12.24965183768068      6.86741146789539
  C   17.04470009781058     10.72418036539439      7.40367075441636
  C   17.50570289781524     10.49721263934195      8.73162643297887
  H   18.35689648355852     11.03191308545367      9.14223130131097
  C   16.80490248605648      9.56913548298417      9.46378154869401
  C   16.05014708341125      8.21983985515536     11.10312182499019
  H   15.43136766184860      8.61307787305681     11.91672263650766
  H   16.52624682424264      7.26928036199614     11.36357240399659
  C   15.68091681728521      8.85751066352457      8.96425293007141
  C   15.17832029385165      9.03068868514228      7.67601416242914
  C   14.02065745982279      8.34944021526992      7.09687530532246
  C   13.26643636023825      7.39043614863460      7.80819140974815
  H   13.54545254880060      7.13124371725244      8.82365359515091
  C   12.16115314351091      6.77208080735939      7.22328499278525
  H   11.59896242552196      6.03820692871412      7.79744034184075
  C   11.76504017257629      7.08430233962321      5.90840970319961
  H   10.89889080855326      6.59572392748135      5.46746869182832
  C   12.48889621995622      8.01964815192223      5.18062745236916
  H   12.21228465160849      8.28336495412057      4.16261316671561
  C   13.61161397905554      8.65533553632147      5.75632104289831
  C   14.36581427242013      9.61661452712566      4.99421613358364
  C   15.50053036732400     10.26046600931440      5.58372169834784
  C   15.91091028953313      9.99672533933184      6.90370263750376
