63
Coordinates from ORCA-job CUKMIF-oxo_1_2_tpss_d4_lanl2dz_631gpol_Mn2.opt
  Mn  15.46568114560223     11.37842227376703      2.94464591052499
  Cl  13.85485305615608     12.74784300936482      3.79285128308980
  O   16.62773539267893     12.39204435293236      2.51665320928366
  N   16.19290995659694     11.20046642211501      4.76954156350741
  N   14.55441241890194     11.21262529893948      1.19034315990219
  O   16.46305518224957      9.80914827190559      2.26675962351042
  O   14.29634156961542      9.79045703619559      3.67581918160339
  O   13.19361362416209      8.77974904237555     -4.53807523816143
  O   14.86786112280684      7.45723868555984     -3.61906485063245
  O   15.16037781330200      8.11104198334741      9.93499103929512
  O   16.84727272742657      9.42145037958278     10.84931781089576
  C   16.07268303606648      9.41389358968904      1.11698225546035
  C   16.63570401246005      8.26106476528896      0.45053518435326
  C   17.65867814400111      7.52558129530396      1.08683125728229
  H   17.99311376258121      7.85101538843796      2.06891162599299
  C   18.21824831623353      6.41924300202835      0.45961325755225
  H   19.00794516530529      5.85123749674325      0.94625045516727
  C   17.75569403679409      6.04148001985590     -0.81469571242853
  H   18.19017618268048      5.17694021823089     -1.31302341431162
  C   16.74586852966119      6.75901980990926     -1.45856365997597
  H   16.41415596182566      6.44350464741163     -2.44156198213566
  C   16.15838308657877      7.88691312087913     -0.84626723191286
  C   15.10210224831451      8.67449077621009     -1.48365057194565
  C   14.55024729455124      8.44479919253430     -2.73925062291391
  C   14.03676119301227      7.64480369937883     -4.79316393971393
  H   14.68203021550792      7.85021247715139     -5.65349103437187
  H   13.41986340466737      6.75211398247037     -4.93579047070113
  C   13.52378768180249      9.25730395808231     -3.30437013665947
  C   12.97960404556447     10.34323729660848     -2.66842441214160
  H   12.19918359307413     10.94737268519409     -3.12097277667719
  C   13.50219457281334     10.63783266494297     -1.37358134470221
  C   13.04823153217951     11.72755460172660     -0.59629362004806
  H   12.27006918501291     12.38092871413339     -0.98421745939917
  C   13.58010020994688     11.98633392366403      0.66438429595853
  H   13.24175447087148     12.80677432045742      1.29046690862525
  C   15.01894700070228     10.16303346756194      0.46655320862197
  C   14.53837589785478      9.81348876986121     -0.80842178118835
  C   17.17081178588879     11.97206663250840      5.29374602278177
  H   17.60318974866273     12.69820705129144      4.61186256223969
  C   17.57295359405610     11.83472634523511      6.61737835990387
  H   18.36379753243755     12.47596367084595      6.99992385749697
  C   16.96662931059736     10.88277987982280      7.46951660943322
  C   17.34759348180734     10.71892137330188      8.83483806230371
  H   18.13019217296007     11.32142331524528      9.28593835843069
  C   16.66421149662313      9.76259619070306      9.54053996835588
  C   15.88662537631844      8.39871488776471     11.15684662518726
  H   15.18096912897071      8.76828933760278     11.90855486737504
  H   16.40562359762143      7.49157027526054     11.48159791886854
  C   15.63098589224211      8.95865861992076      8.97892956338329
  C   15.21289200239566      9.06528727768849      7.65693496698601
  C   14.15420884929151      8.27955595128060      7.02027845830757
  C   13.42532941782343      7.28455555172338      7.70717289528947
  H   13.64687392265631      7.07358620437833      8.74745946579735
  C   12.41496948858113      6.56738258181811      7.06415456552786
  H   11.86868010723509      5.80816348373241      7.62077406464712
  C   12.09247336458751      6.81412441426922      5.71710594147933
  H   11.29822464970797      6.25103773249299      5.23189241585436
  C   12.79591060078907      7.78645294240595      5.01603796061039
  H   12.57294431446734      8.01079945311986      3.97572356944631
  C   13.82241656116581      8.51767655446167      5.64947817511157
  C   14.53890959716341      9.52703392133714      4.89455440622179
  C   15.58776759614052     10.28115738384487      5.55688141633992
  C   15.92319962024620     10.06740832810240      6.90740795201498
