63
Coordinates from ORCA-job CUKMIF-oxo_1_4_tpss_d4_lanl2dz_631gpol_Mn2.opt
  Mn  15.25938692612465     11.24932166283346      2.96821819551544
  Cl  13.78163585779080     12.75511082192737      3.77902466941078
  O   16.40492178253213     12.31096915086968      2.42368804601758
  N   16.08976635725099     11.07388124346873      4.75642347877012
  N   14.37518655315568     11.07381953333682      1.17807368006718
  O   16.26991916278282      9.69185494772797      2.29276857071679
  O   14.02589677634598      9.73696019036552      3.82040812189066
  O   13.42192682660531      8.89210048566874     -4.72809472128099
  O   15.10209990892954      7.59287434249884     -3.78651037070649
  O   15.25880756119740      8.15780108789619     10.04623423360160
  O   17.08262796388704      9.38455206035100     10.79812460638527
  C   15.96908306282516      9.34273951006206      1.10274311966975
  C   16.62040122217212      8.25463785978228      0.40838935011303
  C   17.64378601354801      7.53190180723495      1.05832642559247
  H   17.91254399570181      7.81865923488005      2.07204528905737
  C   18.28616408108351      6.48737449719658      0.40472447488007
  H   19.07669280024832      5.92998692992275      0.90195620453758
  C   17.90658273024598      6.15929162712127     -0.91004470208614
  H   18.40589203723588      5.34343759137338     -1.42907036513020
  C   16.89809909656637      6.86565965866529     -1.56819651202818
  H   16.63152030820084      6.58990814323803     -2.58237330995415
  C   16.22846331581148      7.93166176497628     -0.93011682562798
  C   15.17197214293229      8.70618003123017     -1.58371885562453
  C   14.69703913059027      8.51974664618494     -2.87726630474682
  C   14.32501768993390      7.80671307422254     -4.99296588383534
  H   15.00441504924875      8.08152676030903     -5.80630385948847
  H   13.75525422869549      6.89826174666398     -5.21160601489349
  C   13.66582753217204      9.31724594372293     -3.45562592513486
  C   13.04034800352158     10.34343015687438     -2.79609225664177
  H   12.25772791611670     10.93667337667304     -3.25895351683378
  C   13.48115447384487     10.59106433244916     -1.46126603841198
  C   12.93846765136076     11.61677929981107     -0.65495284178807
  H   12.15148441616758     12.25533077495605     -1.04923248088897
  C   13.39622170615312     11.83328543503599      0.64282777231922
  H   13.00113566072488     12.61477522138136      1.28504826580655
  C   14.92147259919946     10.08364606285393      0.43067344301771
  C   14.52351590763866      9.78336626649238     -0.88417043791753
  C   17.14706791767912     11.79914447374339      5.17824501484392
  H   17.55836095145792     12.48010524295364      4.43820531260840
  C   17.63611045325992     11.66376762913671      6.47286939990923
  H   18.48762694603553     12.26367784939172      6.78520654840345
  C   17.03717637492362     10.76444776976135      7.38538589055739
  C   17.50787904766043     10.60561574826085      8.72280116960463
  H   18.35507810783226     11.16936973912285      9.10106094111969
  C   16.82404775577527      9.70646010418413      9.49950040922251
  C   16.09347842439077      8.42235686523985     11.20114378647608
  H   15.47258369797066      8.84473433967543     11.99802868487794
  H   16.58659020909541      7.49312316033216     11.50269612728334
  C   15.70540987074480      8.95328591889660      9.03541565931781
  C   15.19761060330751      9.05609114290137      7.74659483760480
  C   14.04951112555320      8.32144045163890      7.20933145833316
  C   13.31563120458142      7.39078171618936      7.97574296798443
  H   13.59934808181571      7.19202573034471      9.00314824700430
  C   12.21925328383486      6.72078040349167      7.42868831723801
  H   11.67159387839996      6.01105892866018      8.04574601772865
  C   11.81413082405497      6.95296411908204      6.10214471621257
  H   10.95468917574679      6.42808327730712      5.69119309945092
  C   12.52131396936841      7.86279926968166      5.32428677794653
  H   12.23664900089503      8.07461353953149      4.29656649155270
  C   13.63286476483627      8.54576614196998      5.86008719728104
  C   14.34569144679015      9.49255299613326      5.02080304922952
  C   15.48682258055283     10.20275657449989      5.59495603903369
  C   15.90742185489391      9.99846758761081      6.92111511482556
