62
Coordinates from ORCA-job CUKMIF_1_6_tpss_d4_lanl2dz_631gpol_Mn2.opt
  Mn  15.18851399559870     10.41646919792507      3.03955018297172
  Cl  15.25218174251487     12.71313408363567      2.95706494050686
  N   16.23450407449347      9.87384644346923      4.86885806208936
  N   14.11701792820476      9.79342413457588      1.25292474175177
  O   16.70871751384028      9.54884044415228      1.79224561318094
  O   13.63137220847486      9.73365020739707      4.35204851520214
  O   13.20563978638935      8.40433806080619     -4.89886999534501
  O   15.47274844958791      8.13157103861949     -4.47166252563525
  O   14.81840064924958      8.73991839743285     10.70637712848245
  O   17.09940910032267      8.91806423495834     11.10913628645037
  C   16.34840319162184      9.28039801362045      0.60636089378899
  C   17.28685062752449      8.85278742715595     -0.41671410750838
  C   18.64896608808993      8.71919361501445     -0.07292881223483
  H   18.94165266472564      8.94113744106207      0.95027319012774
  C   19.57904046547021      8.31771877583395     -1.02438071639891
  H   20.62914365131441      8.21551400278481     -0.75993538206336
  C   19.14830733340029      8.04815556159717     -2.33591860568419
  H   19.86901854222283      7.73493011303497     -3.08894623928557
  C   17.80507789201726      8.17800174011023     -2.69451210390646
  H   17.50648336253267      7.96518744268554     -3.71477707287671
  C   16.84043731881632      8.58311680530533     -1.74721772002498
  C   15.42270362485975      8.73761996593617     -2.07772990141027
  C   14.85009166939667      8.52294837697482     -3.32578228420415
  C   14.46184128827034      8.06408707538152     -5.50843864524323
  H   14.70383256762818      8.79511476643376     -6.28688443708770
  H   14.41821521668225      7.04084289002876     -5.89444244355961
  C   13.45959827697859      8.68967180872581     -3.59013187482468
  C   12.55205143054679      9.07572984974580     -2.63921450998475
  H   11.49638465952851      9.19679218917728     -2.86226356664035
  C   13.07460087864391      9.31452252645147     -1.33276694344364
  C   12.25311434148409      9.71944581737725     -0.25680120914443
  H   11.18557770237335      9.85730413001529     -0.41374528688963
  C   12.79899036492061      9.94617797704758      1.00238694193152
  H   12.18742564009633     10.26123001616164      1.84377110706879
  C   14.93038169854606      9.40795507440836      0.24452881886701
  C   14.48195198696151      9.14844267857092     -1.06800240969888
  C   17.56029208177217      9.97157434130289      5.10539360335787
  H   18.18357414304240     10.18703114597359      4.24151139697379
  C   18.09954626388319      9.81199881951396      6.37768463216271
  H   19.17394284751913      9.90158204869020      6.52234631979986
  C   17.26260849475015      9.53780069926848      7.48260677541186
  C   17.77793674570956      9.37200858285071      8.80320375584141
  H   18.83986730257351      9.45124274997528      9.01494696486186
  C   16.85512494634458      9.11272784399965      9.78207911228372
  C   15.83009313542174      8.68900213486487     11.74326221899393
  H   15.63257939566194      9.48360582877204     12.47008799320555
  H   15.82076974257964      7.69365719553215     12.19864234443380
  C   15.45611186034781      9.00419451365518      9.53267252117034
  C   14.88973956273788      9.15334212133874      8.27227112101697
  C   13.46383889268331      9.05394951695840      7.95586949857840
  C   12.48288520930340      8.77933795236385      8.93281145954837
  H   12.77447145107293      8.62982873034119      9.96626769003218
  C   11.13253495937147      8.69842365751900      8.58668992431604
  H   10.39940975599666      8.48606899331702      9.36257146839481
  C   10.71063995454577      8.88913218705984      7.25857645580982
  H   9.65505703939681      8.82634482986590      7.00383436453238
  C   11.65687736069973      9.16156487797267      6.27776784897197
  H   11.37168370672062      9.31942042209295      5.24065453558325
  C   13.02616626310772      9.24421122761989      6.60883509485497
  C   13.98178532310018      9.53766879043210      5.55496286758306
  C   15.40661629519408      9.61300529786489      5.90476206263696
  C   15.84679933313180      9.43089316723947      7.23292834031892
