728
QM: 67 at, MM: 661 at, Links: 6
C    10.440900   22.524600   25.782400
C    10.647900   23.739500   25.230200
H    10.017300   24.436900   25.373400
C    11.798000   23.981700   24.440700
H    11.980100   24.847900   24.093000
C    12.637600   22.932000   24.187100
C    12.394200   21.724500   24.813000
H    13.013300   21.019800   24.673900
C    13.829900   23.130200   23.307700
C     9.264000   22.124600   26.555500
C     8.136900   22.866000   26.682300
H     8.094700   23.743200   26.326500
C     7.046200   22.319100   27.340900
H     6.233500   22.807200   27.406400
C     7.147800   21.067500   27.897200
C     8.345800   20.410500   27.782700
H     8.432100   19.562700   28.199900
C     9.887000   17.544000   26.134200
C     9.294700   16.597100   25.414300
H     9.018600   15.789600   25.831500
C     9.074200   16.788000   24.044000
H     8.606500   16.127300   23.544900
C     9.532300   17.914700   23.426300
C    10.095900   18.876400   24.236200
H    10.375700   19.691200   23.839400
C     9.363700   18.013800   21.961900
C    10.118900   17.463300   27.553600
C     9.800700   16.428300   28.326700
H     9.392400   15.664800   27.934000
C    10.051800   16.428300   29.709300
H     9.818000   15.683200   30.249200
C    10.638400   17.529400   30.245200
C    10.973800   18.582700   29.410700
H    11.397400   19.349800   29.778800
C    10.924000   17.569700   31.693200
C    13.918000   20.072900   27.165000
C    15.208000   19.716900   26.993200
H    15.896200   20.245400   27.377700
C    15.547300   18.571700   26.252800
H    16.457800   18.329500   26.126000
C    14.527600   17.797300   25.704700
C    13.220300   18.252400   25.876500
H    12.513000   17.764300   25.471500
C    13.450300   21.170300   27.979000
C    14.217100   22.087900   28.580300
H    15.156300   22.069500   28.441200
C    13.661200   23.078800   29.410700
H    14.207500   23.746800   29.807500
C    12.288700   23.049500   29.627500
C    11.558400   22.109900   28.956600
H    10.619200   22.106200   29.091600
Fe   11.106600   20.020000   26.837800
N    11.355200   21.493300   25.598300
N    14.263100   22.073200   22.628600
H    13.804900   21.324400   22.685900
N     9.403900   20.891300   27.115900
N    10.268400   18.729500   25.557400
N    10.069100   18.894700   21.282900
H    10.521400   19.511300   21.716500
N    10.718900   18.553400   28.097600
N    10.845400   18.762600   32.306800
H    10.676700   19.467300   31.807700
N    12.919400   19.357200   26.584200
N    12.060600   21.196000   28.126300
O    14.370400   24.242300   23.225400
O     8.541300   17.276100   21.384300
O    11.171200   16.542000   32.343200
C    15.453400   22.087900   21.786000
C    16.659100   22.216300   22.702300
H    16.597700   23.053200   23.205400
H    17.477600   22.220000   22.162300
H    16.680200   21.460200   23.324000
C    15.476400   20.795900   20.963800
H    14.680900   20.759200   20.391100
H    15.480200   20.025200   21.565100
H    16.281500   20.781200   20.403400
C    15.390100   23.236700   20.816600
C    13.973600   24.602000   19.372600
C    12.543700   25.097500   19.413500
H    12.451700   25.871900   18.804000
H    12.338600   25.413200   20.329800
C    11.495200   23.996400   19.008600
H    11.504800   23.266000   19.675300
H    10.588500   24.392800   18.992200
C    11.821000   23.438500   17.654600
H    11.205700   22.693500   17.446000
H    11.694500   24.143200   16.967400
C    13.222200   22.954100   17.605500
H    13.415800   22.620100   16.693300
H    13.316100   22.190600   18.227300
C    14.286100   24.047800   17.981800
H    15.192700   23.651400   17.977700
H    14.263100   24.778200   17.315100
C    14.878400   25.827900   19.691700
C    15.438100   27.457500   21.507800
C    15.342200   27.472200   23.033600
H    14.406800   27.365800   23.303600
H    15.685300   28.323700   23.377200
H    15.873200   26.734500   23.401800
C    14.646400   28.621000   20.906500
H    13.699500   28.525600   21.139700
H    14.748000   28.613700   19.933000
H    14.987600   29.465200   21.262400
C    16.937000   27.593300   21.107000
C    19.114500   26.580300   20.644800
C    19.971300   27.123500   21.831000
H    20.914400   27.215300   21.540600
H    19.643600   28.022700   22.084600
C    19.900400   26.217000   23.009100
H    18.961200   26.139900   23.315900
H    20.437100   26.591300   23.753500
C    20.437100   24.814900   22.636800
H    21.391700   24.888300   22.387300
H    20.372000   24.220300   23.422200
C    19.672300   24.227700   21.503800
H    18.744600   24.044100   21.798300
H    20.084400   23.368800   21.242000
C    19.649300   25.167200   20.309300
H    19.083900   24.770900   19.601700
H    20.567500   25.251700   19.949400
C    19.359900   27.461200   19.434000
C    18.725400   27.802500   17.106500
H    19.446100   28.481500   17.257800
C    19.308100   26.738100   16.132900
H    19.405900   27.178600   15.241200
C    18.257700   25.611400   15.969300
H    18.593200   24.939700   15.339400
H    17.422000   25.993100   15.629800
H    18.092900   25.189300   16.840600
C    20.692100   26.202300   16.525600
H    20.994900   25.560000   15.850700
H    20.638400   25.761800   17.396900
H    21.326500   26.947300   16.574700
C    17.584900   28.525600   16.456100
C    15.185000   29.094500   16.292500
C    15.162000   30.569900   16.713800
H    15.993900   31.003000   16.431500
H    15.079600   30.628700   17.691400
H    14.399200   31.017700   16.296600
C    13.925700   28.437500   16.705600
H    13.937200   27.501600   16.415200
H    13.166600   28.896300   16.292500
H    13.841400   28.474200   17.683200
C    15.265600   28.966000   14.807600
C    15.673800   27.670400   12.864600
H    15.905800   26.749100   12.623300
H    16.363900   28.279700   12.525100
H    14.809400   27.901600   12.463800
C     6.001600   20.498600   28.609000
C     5.275100   19.294800   30.629700
C     5.924900   18.971800   31.991800
H     6.283300   19.793900   32.384500
H     6.653300   18.329500   31.856800
H     5.254000   18.586400   32.589000
C     4.736500   17.991800   30.028400
H     4.332000   18.175300   29.157100
H     4.059800   17.610100   30.625600
H     5.472500   17.353200   29.917900
C     4.125000   20.263700   30.842400
C     3.496300   22.645800   31.132800
C     4.134600   23.985400   30.760600
H     3.433000   24.682800   30.707400
H     4.563900   23.915700   29.872900
C     5.192700   24.400200   31.815900
H     5.993900   23.831300   31.693200
H     5.464900   25.336100   31.635900
C     4.759500   24.301100   33.235300
H     5.545400   24.455200   33.816200
H     4.105800   25.024100   33.415300
C     4.151800   23.016500   33.595300
H     3.795300   23.064200   34.519700
H     4.836100   22.304400   33.562600
C     2.980700   22.686100   32.584900
H     2.585800   21.808900   32.818100
H     2.271400   23.372500   32.666700
C     2.298300   22.476900   30.159300
C     1.508500   21.981400   27.901300
C     2.114300   21.210700   26.747800
H     2.380700   20.318800   27.054600
H     2.900100   21.687800   26.408300
H     1.452900   21.122600   26.027900
C     1.100300   23.416500   27.500400
H     1.891900   23.908300   27.193600
H     0.711100   23.875300   28.277600
H     0.439000   23.376100   26.780500
C     0.279900   21.210700   28.424900
C    -0.565500   19.291100   29.705200
C    -1.042800   18.498300   28.498500
H    -1.865100   18.002800   28.743900
H    -1.276600   19.129600   27.770400
C    -0.019200   17.525700   27.991300
H     0.778200   18.017500   27.668100
H    -0.392900   17.015500   27.226400
C     0.381400   16.567700   29.095700
H    -0.410200   16.053900   29.394300
H     1.054300   15.925400   28.756200
C     0.958400   17.334800   30.265600
H     1.794100   17.782600   29.983400
H     1.182700   16.703500   30.993700
C    -0.023000   18.373500   30.781000
H    -0.782100   17.907400   31.214600
H     0.425500   18.920400   31.472300
C    -1.684900   20.120600   30.351500
C    -2.212000   21.889700   31.963200
H    -3.122500   21.496900   31.832300
C    -1.817100   21.651100   33.468500
H    -0.851100   21.886000   33.574800
C    -2.624100   22.476900   34.474700
H    -2.313600   22.275100   35.382800
H    -3.574900   22.249400   34.397000
H    -2.499500   23.431200   34.290700
C    -1.991600   20.172000   33.828400
H    -1.734700   20.032500   34.765200
H    -1.424200   19.625100   33.247600
H    -2.928900   19.915000   33.705700
C    -2.323200   23.398200   31.664600
C    -1.025500   25.545300   31.521400
C    -1.516200   26.198600   32.769000
H    -1.429900   27.171200   32.683100
H    -0.987200   25.886600   33.529800
H    -2.459300   25.967400   32.908100
C     0.385300   25.890300   31.284100
H     0.479200   26.862900   31.243200
H     0.680500   25.493900   30.437400
H     0.931600   25.541600   32.020400
C    -1.813300   25.886600   30.355600
C    -2.568500   25.405800   28.195800
H    -2.509100   24.646100   27.582200
H    -2.152600   26.191300   27.786800
H    -3.511600   25.596700   28.388100
C    10.118900   18.865300   19.802100
C    11.017900   17.676200   19.405300
H    10.588500   16.835700   19.675300
H    11.886200   17.756900   19.851200
H    11.146300   17.672500   18.431800
C    10.759100   20.179300   19.372600
H    10.178300   20.924400   19.634400
H    10.876000   20.183000   18.399100
H    11.631300   20.274700   19.806200
C     8.706200   18.865300   19.258100
C     7.165100   18.039500   17.564600
C     7.105700   16.751200   16.726100
H     7.004100   15.969500   17.327400
H     7.949100   16.644800   16.222900
C     5.900000   16.810000   15.728000
H     5.846300   15.962100   15.220800
H     5.054700   16.923800   16.231100
C     6.085900   17.969800   14.770800
H     6.940800   17.863400   14.284000
H     5.349800   17.969800   14.108100
C     6.091700   19.250700   15.511200
H     5.208000   19.393900   15.932500
H     6.254600   19.995800   14.877100
C     7.203400   19.258100   16.619700
H     8.090900   19.291100   16.182000
H     7.105700   20.083900   17.163700
C     5.955600   18.116600   18.513600
C     4.887900   16.978800   20.383000
C     3.758900   16.332800   19.622100
H     4.071300   15.492300   19.229400
H     3.457900   16.938400   18.910400
H     3.015200   16.153000   20.231600
C     5.311500   16.097900   21.581500
H     5.654600   15.242800   21.254200
H     4.537100   15.940100   22.162300
H     6.013100   16.556700   22.092800
C     4.328200   18.318500   20.996500
C     5.002900   20.461900   22.109200
C     6.358100   21.104200   22.424100
H     6.887100   21.166600   21.589700
H     6.210500   22.021800   22.759500
C     7.142100   20.333500   23.438600
H     7.937600   20.862000   23.696300
H     7.460300   19.493000   23.025400
C     6.373400   19.988500   24.686200
H     6.921600   19.386500   25.246600
H     6.210500   20.817900   25.201600
C     5.075700   19.335100   24.399800
H     4.567800   19.225000   25.242500
H     5.234800   18.435900   24.015300
C     4.255300   20.179300   23.409900
H     3.411900   19.702200   23.201300
H     4.019600   21.038200   23.839400
C     4.222800   21.394200   21.213300
C     4.050200   22.337400   18.947200
H     4.017700   23.222000   19.413500
C     5.062300   22.498900   17.769100
H     5.150500   21.614400   17.311000
C     6.465400   22.921000   18.292700
H     7.088400   22.990800   17.536000
H     6.795100   22.249400   18.922700
H     6.400300   23.787200   18.742700
C     4.550500   23.519300   16.746500
H     5.188800   23.589000   16.006100
H     4.454700   24.392800   17.180100
H     3.680300   23.225700   16.402900
C     2.643300   22.051200   18.485000
C     1.019700   20.333500   17.867300
C    -0.036400   20.704200   18.869500
H     0.195500   20.322500   19.744800
H    -0.902800   20.348100   18.579100
H    -0.090100   21.680500   18.943100
C     1.121300   18.858000   17.834600
H     1.826700   18.593700   17.208700
H     0.264500   18.480000   17.540100
H     1.337900   18.527700   18.730400
C     0.822300   20.854600   16.476500
C     1.449100   22.062200   14.582600
H     2.250300   22.300700   14.071300
H     1.004400   22.880700   14.893500
H     0.837700   21.552000   14.014100
C    11.014000   18.971800   33.697500
C    11.142500   20.487600   33.951200
H    11.939900   20.829000   33.497100
H    11.223000   20.652800   34.916500
H    10.347000   20.946400   33.607500
C     9.775800   18.505700   34.429700
H     9.664600   17.540400   34.298800
H     8.991800   18.975500   34.073900
H     9.867800   18.696500   35.382800
C    12.306000   18.281800   34.102500
C    13.534700   17.169700   35.939100
C    14.746100   18.098200   35.984100
H    14.976100   18.380900   35.063800
H    15.522400   17.606400   36.352300
C    14.470100   19.371800   36.871800
H    15.288600   19.929700   36.920900
H    13.751300   19.915000   36.458600
C    14.056000   18.946100   38.262500
H    14.824700   18.502000   38.700200
H    13.831800   19.753600   38.790200
C    12.905900   18.032200   38.283000
H    12.100900   18.509300   37.959800
H    12.737300   17.738600   39.211500
C    13.160900   16.776900   37.379000
H    13.893100   16.237400   37.771700
H    12.344300   16.219100   37.362600
C    13.914200   15.877700   35.182400
C    12.982600   13.848000   34.102500
C    13.366000   12.893800   35.198800
H    12.685500   12.912100   35.902300
H    14.232400   13.154400   35.575100
H    13.431200   11.983500   34.834700
C    11.665800   13.514000   33.423500
H    10.941200   13.543400   34.078000
H    11.717500   12.614800   33.034900
H    11.491300   14.167400   32.711700
C    14.086700   13.763600   32.994000
C    15.240600   14.875700   31.100100
C    15.374800   16.329200   30.568300
H    15.574200   16.927400   31.329100
H    16.143500   16.369500   29.946600
C    14.167200   16.843000   29.860600
H    14.376200   17.727500   29.468000
H    13.436900   16.967800   30.519200
C    13.691800   15.918100   28.768500
H    12.852300   16.270400   28.379900
H    14.372300   15.881400   28.048600
C    13.450300   14.527000   29.304300
H    13.203100   13.925100   28.555800
H    12.695100   14.549100   29.942500
C    14.692400   13.980200   30.003800
H    14.472000   13.099300   30.396500
H    15.399700   13.837000   29.324800
C    16.599700   14.431600   31.586800
C    18.265400   14.494000   33.333500
H    18.943900   14.908800   32.724000
C    18.391900   15.143700   34.769300
H    17.617500   14.853700   35.329600
C    18.330500   16.692500   34.572900
H    18.353600   17.136600   35.444200
H    17.500600   16.931100   34.106600
H    19.097300   16.986100   34.037100
C    19.689600   14.806000   35.497400
H    19.680000   15.213400   36.389100
H    20.450600   15.154700   34.986000
H    19.772000   13.833400   35.583300
C    18.547200   13.014900   33.456200
C    17.625200   10.750300   33.893900
C    17.682700   10.137400   32.511300
H    17.782300    9.164700   32.593100
H    18.449400   10.504400   32.024500
H    16.856500   10.342900   32.028600
C    16.381100   10.276800   34.560600
H    16.306400   10.684200   35.444200
H    16.413700    9.300500   34.650600
H    15.604800   10.526400   34.016600
C    18.775300   10.449300   34.728300
C    20.009700   10.871400   36.642700
H    20.000100   11.440300   37.440300
H    20.828200   11.040300   36.127300
H    19.982800    9.928200   36.912700
C    14.786300   16.465000   25.095200
C    13.881600   14.853700   23.389500
C    13.078500   14.024200   24.350700
H    13.576800   13.921400   25.185200
H    12.911700   13.143300   23.958100
H    12.223600   14.472000   24.530700
C    13.229900   15.107000   22.039600
H    13.839400   15.628100   21.475100
H    12.398000   15.606100   22.170500
H    13.034400   14.251800   21.606000
C    15.290500   14.343500   23.082700
C    17.721000   14.677500   22.387300
C    18.650700   15.826300   22.330000
H    19.578400   15.481300   22.334100
H    18.529900   16.369500   23.148100
C    18.480100   16.762300   21.082400
H    17.652000   17.294500   21.176500
H    19.244900   17.386200   21.025200
C    18.409100   15.940100   19.838900
H    18.194500   16.545700   19.082200
H    19.308100   15.565700   19.663000
C    17.466100   14.857400   19.822600
H    17.590700   14.328900   18.992200
H    16.547900   15.228100   19.810300
C    17.632800   13.917800   21.066100
H    16.864200   13.293800   21.102900
H    18.453200   13.374600   20.951500
C    18.090900   13.686500   23.536700
C    18.345900   13.437000   25.978800
C    19.833300   13.748900   26.126000
H    19.961800   14.717900   26.171000
H    20.320200   13.389300   25.357000
H    20.174500   13.334200   26.948200
C    17.569600   13.895800   27.246800
H    17.630900   14.868400   27.332700
H    17.960600   13.473700   28.040400
H    16.628400   13.631500   27.169100
C    18.223200   11.855100   25.954200
C    16.509600   10.067600   25.884700
C    15.012500   10.100700   25.610600
H    14.849600   10.599800   24.772100
H    14.686700    9.175800   25.483800
C    14.226600   10.743000   26.715100
H    13.262500   10.570500   26.567800
H    14.368500   11.722900   26.686400
C    14.610000   10.236500   28.073100
H    14.140400   10.783300   28.752100
H    14.272600    9.307900   28.163100
C    16.061000   10.232800   28.408500
H    16.216300    9.752000   29.259300
H    16.390700   11.161400   28.506700
C    16.795200    9.528100   27.250900
H    17.391300    8.801400   27.398200
C    17.259000    9.318900   24.780200
C    18.414900    9.047300   22.624600
H    17.952900    8.177400   22.440500
C    18.459000    9.898800   21.356500
H    18.748400   10.801700   21.675600
C    17.048200   10.159400   20.693800
H    17.159400   10.709900   19.892100
H    16.467400   10.621800   21.336000
H    16.641800    9.300500   20.448400
C    19.465300    9.550100   20.260200
H    19.390600   10.196100   19.528000
H    19.279400    8.647200   19.924800
H    20.372000    9.579500   20.632500
C    19.796900    8.797700   23.168600
C    21.777000    9.601500   24.436600
C    22.237000   10.944800   24.878400
H    21.596800   11.315500   25.520600
H    22.302200   11.543100   24.105300
H    23.116800   10.867800   25.303800
C    21.631300    8.713300   25.594300
H    21.280500    7.847100   25.303800
H    21.010300    9.117000   26.240600
H    22.505400    8.584800   26.019700
C    22.559100    8.889500   23.381300
C    23.389000    8.988600   21.188800
H    23.251000    9.546500   20.395200
H    23.103400    8.071000   20.996500
H    24.339800    8.992200   21.426000
C    11.677300   24.025800   30.551900
C     9.789200   24.521300   32.077700
C     8.940000   25.350800   31.112300
H     9.526600   25.864600   30.519200
H     8.372700   25.963700   31.623700
H     8.376500   24.752500   30.576500
C     8.865300   23.702800   32.985800
H     9.405800   23.166900   33.603500
H     8.307500   23.111900   32.441800
H     8.292200   24.312100   33.501200
C    10.596200   25.409500   33.002200
C    12.413300   25.574700   34.622000
C    13.693800   24.840600   35.014700
H    14.217100   25.409500   35.632300
H    14.242000   24.690100   34.204800
C    13.417700   23.471600   35.697800
H    13.003700   22.851300   35.047400
H    14.272600   23.071500   36.000500
C    12.491900   23.651400   36.888100
H    12.281100   22.766900   37.276700
H    12.952000   24.187300   37.583500
C    11.255600   24.315700   36.503600
H    10.676700   24.422200   37.301300
H    10.770600   23.757900   35.845100
C    11.545000   25.725100   35.886000
H    10.690100   26.169200   35.652800
H    12.014600   26.290400   36.548600
C    12.836900   27.002400   34.176100
C    13.450300   28.437500   32.253600
C    14.859200   28.808200   32.646300
H    15.474500   28.099800   32.364000
H    14.910900   28.914600   33.619800
H    15.110300   29.648700   32.212700
C    13.285500   28.272300   30.715600
H    13.895000   27.578600   30.392400
H    13.494400   29.120200   30.273800
H    12.361600   28.019100   30.511000
C    12.455500   29.560600   32.687200
C    10.149600   30.224900   33.186200
C     8.811600   29.487200   33.386700
H     8.928500   28.789800   34.078000
H     8.135000   30.129500   33.718000
C     8.307500   28.852200   32.139100
H     7.410400   28.474200   32.310900
H     8.909400   28.107200   31.889500
C     8.223200   29.835900   30.989600
H     7.981600   29.344000   30.167400
H     7.502400   30.485500   31.177800
C     9.486300   30.573600   30.756500
H     9.338700   31.263600   30.061100
H    10.176400   29.946000   30.425100
C     9.984700   31.245300   32.045000
H     9.342600   31.942600   32.319000
H    10.856900   31.682000   31.869100
C    10.481200   30.955300   34.466600
C    11.661900   31.047100   36.577300
H    10.812800   31.344400   37.014900
C    12.375000   30.045100   37.559000
H    13.111000   29.590000   37.059900
C    11.345700   28.973300   37.988500
H    11.778900   28.327400   38.589800
H    11.006400   28.507200   37.199000
H    10.601900   29.406400   38.458900
C    12.969200   30.713100   38.765700
H    13.412000   30.045100   39.326100
H    12.260000   31.153500   39.277000
H    13.624800   31.384700   38.475200
C    12.536000   32.287600   36.372700
C    14.209400   33.462100   34.953300
C    14.981900   33.018000   33.718000
H    15.489800   32.206900   33.926600
H    15.599100   33.730100   33.448000
H    14.353100   32.834500   32.989900
C    13.381300   34.673300   34.650600
H    12.879100   34.933900   35.452400
H    12.756400   34.471500   33.926600
H    13.969800   35.411100   34.380700
C    15.158200   33.645600   36.094600
C    16.802800   35.209200   36.875900
H    17.132500   36.112100   36.675400
H    17.533200   34.566900   36.781800
H    16.463600   35.183500   37.796200
N    14.215100   23.592700   20.387100
H    13.513600   23.192600   20.734700
N    14.912900   26.165600   20.976100
H    14.602300   25.582000   21.556900
N    17.690300   26.532600   20.935200
H    17.308900   25.743500   21.000600
N    18.414900   27.237300   18.399100
H    17.676900   26.778500   18.538100
N    16.337100   28.411800   16.869200
H    16.185600   27.879600   17.548200
N     6.281400   19.896700   29.787000
H     7.119100   19.867300   30.052900
N     4.483400   21.577700   30.924200
H     5.334500   21.790600   30.850600
N     2.537900   22.043800   28.977100
H     3.354400   21.772200   28.793000
N     0.523300   20.201300   29.292100
H     1.336000   20.083900   29.611100
N    -1.313000   21.188600   31.063300
H    -0.486900   21.482300   30.981400
N    -1.140500   24.055100   31.545900
H    -0.404400   23.578000   31.476400
N     8.401400   18.006500   18.284500
H     8.991800   17.386200   18.071800
N     5.988100   17.206400   19.519900
H     6.724200   16.736600   19.642600
N     5.292300   19.170000   21.389200
H     6.130000   18.960800   21.217400
N     4.558200   21.383200   19.924800
H     5.119800   20.762900   19.646700
N     2.424800   20.777600   18.260000
H     3.074600   20.190300   18.333600
N    12.380700   17.778900   35.341900
H    11.654300   17.826600   35.836900
N    12.884900   15.235400   34.630200
H    12.112400   15.653800   34.572900
N    14.280300   14.879400   32.208600
H    13.820300   15.609800   32.376300
N    16.954300   14.758300   32.826300
H    16.363900   15.147300   33.349800
N    17.468000   12.218400   33.750700
H    16.674400   12.581800   33.853000
N    14.071400   16.288800   23.962100
H    13.712900   16.978800   23.553100
N    16.294900   15.158300   22.743200
H    16.133900   16.024500   22.722700
N    17.778500   14.057200   24.792500
H    17.199600   14.710600   24.898900
N    16.969600   11.502700   25.622900
H    16.421400   12.086300   25.262900
N    17.602200    9.880400   23.606300
H    17.362600   10.706300   23.409900
N    20.416000    9.774000   23.696300
H    20.063400   10.577800   23.643100
N    10.630700   23.618400   31.288200
H    10.439000   22.759500   31.296400
N    11.667700   24.906700   33.595300
H    11.941800   24.110200   33.341700
N    13.034400   27.138200   32.842600
H    12.913600   26.444500   32.315000
N    11.184600   29.226600   32.854900
H    10.950800   28.386100   32.764900
N    11.313100   30.375400   35.362400
H    11.642800   29.578900   35.198800
N    13.321900   32.287600   35.309200
H    13.329600   31.575600   34.789700
O    16.478900   23.761500   20.407500
O    15.415100   26.499600   18.812200
O    17.448800   28.753100   21.053800
O    20.339400   28.140200   19.303100
O    17.832200   29.270600   15.453900
O    14.983800   29.946000   14.042700
O    15.585700   27.791500   14.353600
O     4.851500   20.546300   28.153300
O     2.961500   19.889400   31.025200
O     1.140500   22.836600   30.584700
O    -0.824200   21.482300   27.987200
O    -2.882900   19.753600   30.232900
O    -3.375500   23.974400   31.750500
O    -2.430500   27.075800   30.237000
O    -1.930200   25.104900   29.345200
O     7.859000   19.680100   19.673300
O     4.964600   18.814000   18.309100
O     3.139800   18.502000   21.160200
O     3.475200   22.245700   21.671500
O     1.765400   22.810900   18.231400
O    -0.366100   21.005100   16.083800
O     1.830600   21.254700   15.728000
O    13.329600   18.296800   33.359700
O    15.075800   15.456400   35.106700
O    14.703900   12.735900   32.801700
O    17.372100   13.917800   30.809600
O    19.660800   12.545100   33.353900
O    19.588000    9.509700   34.413400
O    18.894100   11.157700   35.849100
O    15.528200   15.686900   25.573800
O    15.384400   13.088300   23.250400
O    18.838500   12.710200   23.299500
O    19.060900   11.143000   26.338700
O    17.197700    8.038000   24.870200
O    20.349000    7.795700   22.698200
O    23.400500    7.946200   23.630800
O    22.608900    9.520800   22.301400
O    12.112400   25.191800   30.625200
O    10.170600   26.488600   33.313900
O    12.969200   27.938300   34.942700
O    12.858000   30.723000   32.770200
O     9.975100   32.041700   34.721800
O    12.490000   33.219900   37.184300
O    15.509000   32.838200   36.908600
O    15.739000   34.871500   35.963700
Cl    0.599200   15.801400   10.462300
Cl   15.687800   17.634700    2.168400
N     1.980100   20.821600   11.232500
C     2.721900   21.750200   11.073000
C     3.695600   22.722800   11.105700
H     3.517400   23.387200   10.406200
H     4.571600   22.311800   10.950300
H     3.691800   23.159600   11.981100
N     7.067300   22.785200   10.185300
C     7.901100   23.625700    9.837700
C     8.685100   24.686400    9.518600
H     9.392400   24.396500    8.905000
H     9.085700   25.053500   10.332600
H     8.140700   25.376500    9.080900
N    16.680200   29.270600    5.289000
C    17.207300   28.709100    4.278700
C    17.531200   27.494200    3.693700
H    18.505000   27.387800    3.689600
H    17.193900   27.475900    2.777400
H    17.124900   26.767500    4.209100
N     2.093200   22.774200   39.722800
C     1.155800   22.697100   40.455000
C     0.197400   22.708100   41.481800
H    -0.199300   21.816300   41.571800
H    -0.504100   23.357800   41.265000
H     0.624900   22.961400   42.328500
N    10.237700   21.944700   22.285000
C     9.551500   22.891700   21.994600
C     8.794400   23.996400   21.638700
H     7.845500   23.754200   21.634700
H     9.058900   24.301100   20.747000
H     8.945800   24.715800   22.289100
N    10.264600   17.540400    3.685500
C     9.649300   17.140300    2.662900
C     8.836500   16.270400    1.947100
H     9.386700   15.730900    1.341700
H     8.184800   16.784300    1.423500
H     8.361200   15.683200    2.568800
N     0.946900    3.013300   23.872200
C     1.907200    3.758400   23.409900
C     2.905900    4.503500   22.767700
H     3.532700    3.897900   22.321900
H     3.387000    5.043000   23.426300
H     2.493800    5.094400   22.101000
N    -0.059400   15.668500   16.521500
C     1.056200   15.059200   16.333400
C     2.139200   14.394900   16.112500
H     1.982000   13.444300   16.284300
H     2.848400   14.721600   16.705600
H     2.409400   14.519700   15.179800
N     2.507200   12.816700   21.520100
C     2.183300   12.794700   20.288900
C     1.811400   12.849700   19.151700
H     1.349400   12.016600   18.922700
H     2.583900   12.970800   18.562700
H     1.196100   13.602100   19.045400
Na   -5.518500   20.109600   31.184700
Cl   -5.706400   22.682500   32.499800
O     2.183300   28.345700   13.253200
O     2.992200   36.258900   38.213500
O     3.373600   11.073300   33.411200
O     3.824100    7.300200   18.685400

QM/MM links (counting starts at zero)
 14  148
 40  392
 48  473
 53   67
 57  230
 60  311
