101
QM: 51 at, MM: 50 at, Links: 4
Fe    3.129700   14.696200    4.235700
N     4.534000   13.233900    4.844800
C     5.635000   13.575700    5.524400
C     6.545500   12.644100    5.998000
H     7.301900   12.911100    6.507100
C     6.315300   11.304400    5.703300
H     6.936000   10.640700    5.979700
C     5.171300   10.941200    5.001300
H     4.994900   10.029600    4.797600
C     4.296300   11.936000    4.605800
C     5.724100   15.031600    5.705100
N     4.851000   15.822600    5.212000
C     5.214700   17.195000    5.652300
H     4.484500   17.547100    6.238100
C     6.471700   16.961500    6.519300
H     7.240900   17.477400    6.169100
H     6.306800   17.233400    7.457400
O     6.729700   15.524000    6.433600
C     3.013300   11.745900    3.911000
N     2.236500   12.727700    3.642500
C     1.077300   12.142600    2.898900
H     1.146600   12.397500    1.934300
C     1.303100   10.625400    3.034800
H     0.658000   10.227100    3.672100
H     1.209500   10.173600    2.159000
O     2.683000   10.509000    3.541500
N     2.108600   16.540000    3.899500
C     2.371900   17.241300    2.791300
C     1.903200   18.534000    2.603900
H     2.076300   19.008800    1.799800
C     1.169700   19.108200    3.639300
H     0.839400   19.994100    3.550000
C     0.917600   18.393900    4.801100
H     0.431600   18.783400    5.517800
C     1.395100   17.091400    4.888400
C     3.320300   16.525100    1.922600
N     3.780100   15.372200    2.244800
C     4.789500   15.002700    1.218800
H     5.686300   14.932800    1.656400
C     4.788100   16.220400    0.274800
H     5.681300   16.645500    0.249500
H     4.534800   15.950600   -0.644200
O     3.792800   17.138300    0.840100
C     1.276600   16.158100    6.027300
N     1.903600   15.046000    6.031000
C     1.560400   14.346000    7.294200
H     1.079700   13.496700    7.075200
C     0.572300   15.322000    7.973800
H    -0.311600   14.895600    8.101600
H     0.917800   15.616000    8.853700
O     0.473000   16.462300    7.044700
C     5.416700   18.167500    4.486500
H     4.544400   18.237300    4.003000
C     6.458800   17.700000    3.478800
H     7.335900   17.656300    3.912700
H     6.496600   18.332500    2.730600
H     6.215000   16.812800    3.144700
C     5.743900   19.555800    5.042700
H     5.101600   19.784900    5.746100
H     5.690600   20.217100    4.321500
H     6.649900   19.552500    5.417000
C    -0.287500   12.576500    3.432300
H    -0.390400   12.234900    4.365800
C    -0.447400   14.089300    3.445000
H     0.176800   14.477300    4.093300
H    -1.365400   14.319300    3.696800
H    -0.254600   14.444800    2.551900
C    -1.364500   11.930400    2.551300
H    -1.246600   12.223200    1.622800
H    -2.251100   12.200000    2.868600
H    -1.283400   10.954400    2.597900
C     4.459600   13.671900    0.546300
H     4.469100   12.964500    1.252900
C     5.554500   13.334300   -0.464400
H     5.567100   14.012600   -1.171500
H     5.375400   12.455600   -0.858300
H     6.423200   13.317800   -0.010600
C     3.082100   13.657700   -0.103500
H     2.408300   13.928900    0.553900
H     2.881000   12.753100   -0.423000
H     3.071800   14.279800   -0.860100
C     2.819800   14.011900    8.097500
H     3.409700   13.452500    7.515800
C     3.612100   15.243700    8.503800
H     3.138000   15.715900    9.220000
H     3.710200   15.839100    7.731700
H     4.498600   14.972300    8.821800
C     2.451500   13.176900    9.317500
H     3.265000   12.941300    9.809300
H     1.996000   12.358000    9.028900
H     1.856100   13.694200    9.899600
Cl    3.332100   19.167700    8.604700
O     4.637700   18.560700    8.679500
O     3.461300   20.599900    8.731700
O     2.508800   18.661800    9.668400
O     2.722500   18.852400    7.334100
Cl    0.583500   10.229000    7.088100
O     0.773600    9.541100    8.326300
O     1.868200   10.509400    6.508000
O    -0.134400   11.449900    7.303100
O    -0.158500    9.397300    6.172600

QM/MM links (counting starts at zero)
 12   51
 20   61
 37   71
 45   81
