55
Coordinates from ORCA-job BAKQAJ-oxo_1_6_tpss_d4_lanl2dz_631gpol_Co2.opt
  Co  2.86518522853497      4.48138094838139      4.74194315572849
  S   2.40499225288633      3.69968938850859      0.17751534138063
  N   4.10933851264453      2.95453655929790      5.55060928862806
  C   3.81713051160936      2.25570789676787      6.66220416493429
  H   2.83489734556627      2.44133942574880      7.08737820477937
  O   4.72397463363159      4.63163417725633      3.57543585956529
  N   6.47193293662639      3.31467238774416      2.87432280416932
  H   6.98524492080223      2.46182984142308      3.08283896646657
  C   4.72212924721731      1.35581940399529      7.23431722826729
  H   4.44904406663826      0.81407542651113      8.13610148909630
  N   2.33705448392699      3.62152659190556      2.99771003915922
  C   5.97456275144117      1.18764707104554      6.63604720851425
  H   6.71052059184069      0.51188902765190      7.06576848169980
  C   6.27804663420158      1.91463527766794      5.47932178368778
  H   7.26300375558240      1.82310060179453      5.02639659351067
  C   5.31583512432810      2.78598710610293      4.95445915573428
  C   5.49099473913203      3.65191804120265      3.74501855876276
  C   6.82468381098575      3.91985998473545      1.63872669530812
  C   6.23882085526902      5.10761359769331      1.16461201427936
  H   5.48364216718103      5.61533388202453      1.75130563454653
  C   6.65051832655772      5.61002567530188     -0.07404307272180
  H   6.19889057927125      6.52800543312914     -0.44479202891120
  C   7.62921735085844      4.95537377443056     -0.83354343018616
  H   7.93895534918092      5.36162674043127     -1.79395843131541
  C   8.21063081083339      3.77573361825381     -0.34783485864362
  H   8.97305535622894      3.25832836612946     -0.92609827569031
  C   7.81213734707591      3.25780989014875      0.88469903815385
  H   8.26204190458728      2.33854841302373      1.26232398080442
  C   2.36635292317446      3.65834684824803      1.79833819980347
  N   1.11024070681966      5.74044787126203      4.24960985923345
  C   1.07784262605212      6.71245191535116      3.32861118224393
  H   2.00220354076527      6.88329179468469      2.78235027047292
  O   1.31042780049791      3.69321499672818      5.89472176140788
  N   -0.73251614925997      4.06828410502007      6.84871571143869
  H   -1.50773170175253      4.72296938002540      6.91400327089111
  C   -0.08194839379301      7.45661552482570      3.07990121156722
  H   -0.07521750729649      8.23684820731822      2.32331857000808
  O   3.38080640081219      5.84552534957125      5.66911806629840
  C   -1.23723799861765      7.16475277714194      3.81224490485889
  H   -2.15963055280193      7.71269082142585      3.63455473458330
  C   -1.19764268877769      6.14898562298306      4.77454947684479
  H   -2.09993395735533      5.89552798356776      5.32747176222011
  C   0.00615350790651      5.46113302883654      4.97537273769514
  C   0.23329083524643      4.34696201874611      5.94537752153420
  C   -0.71205265926599      3.04171267363564      7.83854262628409
  C   -0.06002975936083      1.81588864020913      7.62030990838032
  H   0.44617667090713      1.62491602155510      6.68004950648341
  C   -0.10173645023772      0.84152547585936      8.62315926517307
  H   0.39191471574257     -0.11380121919788      8.45471677249190
  C   -0.78573954159503      1.07549339755049      9.82397995201276
  H   -0.81328386625959      0.30891185378705     10.59533507680770
  C   -1.44453378751898      2.29629194903075     10.02317883776296
  H   -1.98369882364581      2.48538067667339     10.94884687421791
  C   -1.41057123576394      3.28171642852538      9.03286031667245
  H   -1.91338624926205      4.23596730832753      9.18977603290305
