55
Coordinates from ORCA-job BAKQAJ-oxo_1_4_tpss_d4_lanl2dz_631gpol_Co2.opt
  Co  3.16204352992009      4.17755050501979      5.06648766659280
  S   -0.11412951410386      2.08199781102330      3.11579704519635
  N   4.50512889305383      2.79938309725669      5.59811851747774
  C   4.38384062388614      2.02535042358329      6.68695387422539
  H   3.49539041895073      2.19306825907484      7.28909788095236
  O   4.72747866161816      4.60822372885287      3.64930314405398
  N   6.44176944498458      3.46139795283959      2.63695256432967
  H   6.96673645674393      2.59093695205674      2.66130463474365
  C   5.35273050519634      1.06995660760534      7.01007540764200
  H   5.23114161508120      0.45399240065123      7.89690667023067
  N   2.50170829520445      2.90738880767151      3.76469273856477
  C   6.47239634775477      0.94133812214908      6.18196795643788
  H   7.25341907021423      0.22149838270833      6.41533531992401
  C   6.58872871954541      1.76028367682386      5.05260812113461
  H   7.47711195485525      1.69297885400037      4.42887759896028
  C   5.57193438246917      2.68154951756793      4.77498431307284
  C   5.54734375364152      3.65450589317927      3.63235883924433
  C   6.65269316517314      4.24718529232448      1.46978159183728
  C   6.22924278944509      5.58377196112371      1.36784017561055
  H   5.71286270564646      6.05784450341708      2.19408885202562
  C   6.50493790288012      6.28877267290090      0.19173370147921
  H   6.18541256951901      7.32590961351294      0.11047418654917
  C   7.19126050364122      5.68301215311164     -0.86908208392533
  H   7.39894127953923      6.24435783502458     -1.77740289507426
  C   7.61606990980879      4.35242772140088     -0.75221590576967
  H   8.15362380304382      3.87236113279642     -1.56700294014431
  C   7.35031134484264      3.63331810787861      0.41456323226576
  H   7.67592278985379      2.59648718889696      0.50508428113685
  C   1.38171355442124      2.55063219835130      3.48792389891788
  N   1.75737936652252      5.42811015748901      4.41566926093019
  C   1.97058353041451      6.29514231159294      3.41267225611349
  H   2.97543725994535      6.30316420345389      3.00145389582679
  O   1.52099459853074      3.58553279552783      6.30917708389605
  N   -0.66657411558034      4.12063194090758      6.74548304694912
  H   -1.40890604813781      4.78161134945956      6.53468976855548
  C   0.94677654134456      7.11431478686227      2.93063342356518
  H   1.14552117111595      7.80681693499258      2.11733286793725
  O   3.72062549250143      5.25078355726477      6.17797810660901
  C   -0.32393833133577      7.01151145387936      3.50623583916408
  H   -1.14638011703599      7.62531040662614      3.14686108186318
  C   -0.53416551827653      6.09766867966302      4.54368534405529
  H   -1.52907417060516      5.99794288938184      4.97057516143223
  C   0.53683101751746      5.31412379844699      4.99041886994024
  C   0.49320481864785      4.27442530387745      6.07227323593461
  C   -0.99091874431766      3.17651736312072      7.75845504385977
  C   -0.26124758459324      1.99178922857482      7.95735211873935
  H   0.59356342408212      1.76579600920961      7.33133205606426
  C   -0.67736391473620      1.10707839224145      8.95758030054869
  H   -0.12134732656530      0.18418170752419      9.11069549686883
  C   -1.79856832239442      1.38769795702225      9.74988422953698
  H   -2.10916355955461      0.68944388808610     10.52401657338566
  C   -2.52280384963897      2.56845600063301      9.53604138991399
  H   -3.39781584618108      2.79503870121080     10.14130419604058
  C   -2.12287930818751      3.46290707106681      8.54177289645702
  H   -2.68253594031271      4.38422173908105      8.37661806812014
