56
Coordinates from ORCA-job BAKQAJ-OH_1_3_tpss_d4_lanl2dz_631gpol_Co2.opt
  Co  3.08476612985868      4.06569380057609      5.02833776099795
  S   3.78817555683430      0.96604330595961      1.84555021149227
  N   4.44370521812349      2.76939387633134      5.60226161839855
  C   4.27114187674892      1.92097307784043      6.63067679878005
  H   3.35272720919560      2.04854106715317      7.19685864559681
  O   4.86561692098029      4.77302001221403      3.92209160623101
  N   6.33416047282864      3.50970169894537      2.66698236332184
  H   6.67207864637840      2.55559334444439      2.55509284550987
  C   5.22251613090463      0.93978769117165      6.92807582939779
  H   5.05858928130127      0.26684163322291      7.76526506962173
  N   2.70235276840884      2.92664667293977      3.55832526058410
  C   6.37336069356224      0.84988782145830      6.13760900238934
  H   7.13418473706212      0.10328269352346      6.35266762322218
  C   6.54287027503077      1.73851027987717      5.06830469866402
  H   7.44566155462177      1.70819599774797      4.46282903706359
  C   5.54855348764947      2.68773225909834      4.81907393002613
  C   5.56735578509596      3.74062224280041      3.75365757150869
  C   6.45262965628544      4.33014756258841      1.51052507155003
  C   6.29024842815600      5.72504053685327      1.56582918311126
  H   6.06538801855254      6.21370262283659      2.50726673400439
  C   6.44067013858134      6.46647929722466      0.38931138910934
  H   6.32479512233800      7.54798667991606      0.42640248698332
  C   6.75060202658368      5.83584473215857     -0.82332337719187
  H   6.86743345798771      6.42453136763384     -1.73067283013977
  C   6.91723527441555      4.44454656096026     -0.86257769853585
  H   7.15905044338628      3.94572257428642     -1.79851341900593
  C   6.77099899876658      3.68789795630266      0.30207177054694
  H   6.88497443704966      2.60452282260526      0.27374456961439
  C   3.17520359846573      2.08960255411165      2.83442192174873
  N   1.72830358054624      5.33093559815542      4.37937091585127
  C   1.97279495813893      6.19576732581028      3.38238573192903
  H   2.97675929758011      6.16647207061604      2.96782014523785
  O   1.34488936572831      3.35076700612292      6.09901693493194
  N   -0.67395568915431      4.20202034993613      6.80545544015867
  H   -1.29470960527754      5.00217178448941      6.71437174619434
  C   0.98117984759298      7.06343709756927      2.91519321163966
  H   1.20425490730521      7.75494699849956      2.10731319966963
  O   3.39546527937679      5.16351969815777      6.39416005707479
  C   -0.29018554499129      7.00744604762627      3.49563844034392
  H   -1.08879493724170      7.65598501066617      3.14318434628134
  C   -0.53348315828307      6.09297168173055      4.52701611701066
  H   -1.53157410013678      6.01390484274546      4.95206751335133
  C   0.50904620144600      5.26545473787493      4.96098175893183
  C   0.42248129313965      4.19895339361430      6.01204613404760
  C   -1.02990609879285      3.29840900577044      7.84339394478039
  C   -0.40646206647205      2.05027062064697      8.01834142244536
  H   0.38782359116881      1.73888014125525      7.35074876314196
  C   -0.84304106118687      1.22041013540319      9.05653171921338
  H   -0.36758858447413      0.25082094786782      9.19176063950654
  C   -1.88142700889762      1.61492917110052      9.91021981798036
  H   -2.20981522051921      0.95790493890235     10.71254429295788
  C   -2.49968187389010      2.85868980827561      9.72176761519271
  H   -3.30978055701150      3.17567114606803     10.37493338645514
  C   -2.07812392123591      3.70002748291026      8.69083886854165
  H   -2.55694933444826      4.66914966393415      8.54536759285311
  H   4.36369409483610      5.17612055146867      6.55761456967659
