60
Coordinates from ORCA-job BAKQAJ-CH3OH_1_4_tpss_d4_lanl2dz_631gpol_Co2.opt
  Co  3.43596844323529      4.08515046200953      5.32052629746551
  S   3.71427676988684      0.55728320698260      2.40703113748174
  N   4.90437963174911      2.63516653875105      5.86464840673405
  C   4.93166695338082      1.76819218249713      6.88833434013821
  H   4.20924069780932      1.94637522663186      7.68139336360654
  O   5.14554266317376      4.64938189001913      4.14153669988488
  N   5.95313324512263      3.22363809170301      2.52243817536904
  H   6.01315500495897      2.22500155918597      2.31107153539631
  C   5.82650702413707      0.69142855390756      6.92973716081271
  H   5.81469734839808      0.00862427749972      7.77535342840514
  N   2.78735921684350      2.72417788644234      3.97666941379809
  C   6.72291901743219      0.51671790144437      5.87106833660483
  H   7.43182887524972     -0.30795017914219      5.87523554558153
  C   6.69706752836391      1.41880582631335      4.79903204344160
  H   7.39544197537824      1.32436948516489      3.97114856819645
  C   5.76897376661003      2.46182184353040      4.83390080468697
  C   5.61289206400210      3.52560118170502      3.79221050229509
  C   5.74717412248081      4.08322272775257      1.40275441205451
  C   6.02988307231598      5.45666465913273      1.48122809587957
  H   6.42677449516145      5.88193599425463      2.39773216974185
  C   5.81205489307770      6.25824218778339      0.35532276010790
  H   6.04062593361677      7.32142149262530      0.40614429262926
  C   5.32807528764806      5.69925280973093     -0.83590141135881
  H   5.16929329861673      6.32909911006715     -1.70894740327359
  C   5.06233963806685      4.32463492291520     -0.90352248246145
  H   4.68922039998893      3.88245514281476     -1.82493562827991
  C   5.26966162979224      3.51021373855227      0.21391037632919
  H   5.03894547122498      2.44648972826943      0.17946917311187
  C   3.16064880139604      1.79920662315803      3.30820636645628
  N   2.17579047392227      5.51894438723781      4.44179114419652
  C   2.53513655917566      6.32005707915437      3.42311991047142
  H   3.59582229712713      6.32913380410910      3.18516263955765
  O   1.66596904736570      3.95081484356254      6.49051986254506
  N   -0.61125858523273      4.10820594238752      6.22835671850396
  H   -1.34415387365912      4.53039132280993      5.66432388695395
  C   1.59868911995319      7.06552431928798      2.69986974874192
  H   1.92574684548896      7.69913731048974      1.87970764967236
  O   4.07425605691000      5.19541979565059      7.01062252052895
  C   0.24844196108604      6.97108667885948      3.05263282639115
  H   -0.50700331838738      7.54178801621007      2.51740365273923
  C   -0.12614624679094      6.12436357540573      4.10269465776681
  H   -1.17589782971133      6.05387183900521      4.38031399596729
  C   0.86648732154683      5.39802762864956      4.77223441499688
  C   0.65911277235464      4.42742733393254      5.89757758437844
  C   -1.09332008543419      3.21316973095531      7.22251659836578
  C   -0.25103686551170      2.44893079497232      8.05002578985326
  H   0.82442907177187      2.52384594982959      7.94909690684972
  C   -0.83159004798493      1.59238879273979      8.99146141550120
  H   -0.18321210320180      0.99711954214071      9.63148888143921
  C   -2.22295204677506      1.49005738482086      9.11787037120791
  H   -2.65805830407556      0.81882938750391      9.85499593075626
  C   -3.05251743200004      2.25638465841221      8.28759998694036
  H   -4.13464898099991      2.18605783431313      8.37344616720793
  C   -2.49219038717599      3.11646332893559      7.34219149334873
  H   -3.13791632204731      3.71238951467481      6.69574704415284
  C   5.31005876674156      5.95118407137349      7.08010993345214
  H   5.18703062916757      6.94494146176908      6.63198386372152
  H   5.63376582387621      6.03677294847676      8.12373271198556
  H   6.03386305663359      5.37679903843996      6.50044808508634
  H   3.34798535674832      5.68209661218775      7.44674712588381
