56
Coordinates from ORCA-job BAKQAJ-OH_1_5_tpss_d4_lanl2dz_631gpol_Co2.opt
  Co  3.08491016572625      3.97437908970175      5.12648205515244
  S   3.26895554443914      2.60912403335729      0.72060049128385
  N   4.50585922107130      2.44905907535763      5.65964036031034
  C   4.36962631149232      1.51250407198099      6.60933570601073
  H   3.44825080116202      1.55299011581964      7.18520465469843
  O   4.92445537498864      4.61508723915528      4.10902090511802
  N   6.39379075780073      3.43240483532751      2.79490682144597
  H   6.80359212243731      2.51054127866118      2.66118342923710
  C   5.35381167342305      0.54454404552235      6.84521318622132
  H   5.21014247869586     -0.19894200014163      7.62484782902251
  N   2.79662178168750      2.93158608917529      3.48199868539733
  C   6.51725404046904      0.56739341561146      6.07006067471700
  H   7.30997934178969     -0.15789461742835      6.23881945226040
  C   6.65916499692275      1.54708657819033      5.07875700971609
  H   7.57507097871355      1.60769677089050      4.49426568319491
  C   5.62247338112832      2.46918364483037      4.89471532157116
  C   5.63086553841408      3.59250785083358      3.89997728928483
  C   6.48586444473723      4.29697892429204      1.66933831422429
  C   6.20469871838394      5.67189648302254      1.74764349300523
  H   5.91652702590784      6.11796733347518      2.69204510817756
  C   6.31779456108742      6.44870755425790      0.58987548462869
  H   6.10892483555619      7.51536960716720      0.64652535206785
  C   6.70709705893246      5.87551577525515     -0.62814585976274
  H   6.79187054372504      6.49224282629275     -1.52026067499212
  C   6.99497065466888      4.50537394343678     -0.69101636458746
  H   7.30117078462178      4.04964749807102     -1.63004304929225
  C   6.88717089607090      3.71417424718873      0.45428713506351
  H   7.09780785471365      2.64593423742208      0.40508953898191
  C   2.98822349486085      2.78990991142177      2.30254906320351
  N   1.65141260098054      5.32253188112030      4.29222271171556
  C   1.84567205866710      6.13504392498679      3.24331814310885
  H   2.85203848008790      6.14237353389731      2.83095203513144
  O   1.33680982132307      3.40593587182545      6.11660746884829
  N   -0.70009179291744      4.23389481408429      6.77788925857778
  H   -1.36099702505273      4.99160878888162      6.62426757548009
  C   0.80940749515677      6.90635314247711      2.70534054025978
  H   0.99805852055292      7.55462518727809      1.85373007985795
  O   3.53771632859744      5.07825036209999      6.50101098959615
  C   -0.46489855021817      6.80692471783352      3.27399531444973
  H   -1.29818527407885      7.37629309759710      2.86875112780750
  C   -0.66529846121570      5.94764035603288      4.36111640017568
  H   -1.66400428014231      5.83017530432366      4.77704251120988
  C   0.42650211312977      5.22213120530423      4.85518142991581
  C   0.38497540742793      4.22121960198466      5.97205808031939
  C   -1.01450154506864      3.40183634657882      7.88635715197791
  C   -0.28185394532853      2.24687076655427      8.21398313607014
  H   0.57132641235768      1.95484476240222      7.61478741369535
  C   -0.68106012176975      1.48872649752509      9.31921502123487
  H   -0.11862675814144      0.59282635166639      9.57491701507703
  C   -1.78820561071512      1.86258065850801     10.09218233294454
  H   -2.08524931811096      1.26235536650054     10.94932201967011
  C   -2.51381528182655      3.01312819218656      9.75364179709592
  H   -3.37680025500748      3.31382808117638     10.34359629796143
  C   -2.13143303029442      3.78191044711164      8.65338882118654
  H   -2.69476648633492      4.67831969235179      8.39107102337323
  H   4.34718311431396      5.60733118956270      6.33936720789823
