60
Coordinates from ORCA-job BAKQAJ-CH3OH_1_2_tpss_d4_lanl2dz_631gpol_Co2.opt
  Co  3.40840812512902      4.17519220734578      5.25407015146716
  S   3.18682116070554      0.80472862926504      2.33126343488421
  N   4.55591962687732      2.70589009683244      5.66975456189225
  C   4.42756436719552      1.87358274099430      6.71810592741010
  H   3.62448971413404      2.10858940590545      7.41062974143971
  O   5.10157744383447      4.66710256451201      3.93488218145277
  N   5.95068961864610      3.12592368387013      2.43310126424926
  H   5.97755836049424      2.11872498578717      2.27500133586508
  C   5.26399751461480      0.76472605509634      6.87707351643273
  H   5.13244526130353      0.11118365862959      7.73519882027172
  N   2.58532797295004      3.05233776791694      3.94076934029062
  C   6.25294529055681      0.51553043654528      5.91926364785623
  H   6.91853694181615     -0.33828124454391      6.02092225956207
  C   6.37653983614841      1.38002616573947      4.82488865001145
  H   7.14930707572225      1.22517651117044      4.07577942797895
  C   5.50616963775139      2.46724248314234      4.72703846971705
  C   5.51406081040836      3.50811375001918      3.65407164758628
  C   5.96187447878475      3.92602247468695      1.25588406574830
  C   6.24457491637940      5.30119728952172      1.30254711895449
  H   6.45998562318561      5.78307495116767      2.25039634019306
  C   6.26274386034684      6.02797975104898      0.10745176937226
  H   6.49114432345988      7.09190279958207      0.13570416519859
  C   6.00921715137740      5.39731755070426     -1.11837112487366
  H   6.03113935467185      5.97119575270608     -2.04246811575234
  C   5.73534721160132      4.02298473905833     -1.15118324596439
  H   5.53724189597048      3.52472239286619     -2.09781597395651
  C   5.71064899479626      3.28227120867775      0.03327835156702
  H   5.47529899363232      2.21887477806454      0.01807791258510
  C   2.84515301361608      2.08909317288879      3.26901092079438
  N   2.21778807348059      5.57223654104155      4.67955956488550
  C   2.52879384994405      6.45849085399159      3.71292290770850
  H   3.54834510077183      6.40275449356124      3.34103192872112
  O   1.78543076312726      4.03634922820873      6.83008265900154
  N   -0.48467481289517      3.99702821436856      6.40638641810500
  H   -1.18507811588846      4.30364393618660      5.73436353986306
  C   1.58296030015647      7.35480770159671      3.20781785246109
  H   1.86788237399131      8.05378348914427      2.42602162245031
  O   4.19763103442568      5.22564608086885      6.77792177405203
  C   0.28114512660339      7.32995929494110      3.72118036548867
  H   -0.47182176141073      8.02601717802688      3.35906063729924
  C   -0.04257752244594      6.39360868177940      4.71037072520819
  H   -1.04125772800602      6.37436703293369      5.14166142631588
  C   0.94636816177615      5.51110971613921      5.15867798356418
  C   0.77216165549590      4.45167796594974      6.20215895381300
  C   -0.94566862052485      3.02413525665418      7.33562330338147
  C   -0.16658744186207      2.56813462321631      8.41372691972942
  H   0.83917056736861      2.94363098112179      8.55691856693403
  C   -0.71693614018910      1.62895398824963      9.29205848742810
  H   -0.11880596165589      1.27656633224599     10.13016937307754
  C   -2.01880227012244      1.14453718385449      9.10956748359902
  H   -2.43275257117218      0.41383701366754      9.80088972807504
  C   -2.78687365269874      1.60787275414977      8.03257681096970
  H   -3.79934008414263      1.24075214987722      7.87973192453424
  C   -2.25523212625098      2.54687344912130      7.14686747955116
  H   -2.85148755343896      2.90600503251618      6.30734532578676
  C   4.79619814016860      6.52853833059910      6.53729202151193
  H   4.05930218905553      7.23092480853759      6.12900616206937
  H   5.20986268573188      6.90702972548224      7.47828415861299
  H   5.59082534294064      6.35243458715023      5.81117224219783
  H   3.39773242155582      5.31411661561665      7.34381509136971
