58
Coordinates from ORCA-job AVINUO-OH_2_2_tpss_d4_lanl2dz_631gpol_Fe2.opt
  Fe  -0.30365470505258      4.39959719877977      1.06775059088066
  N   -0.53223939049600      6.29558259559874      0.44364153351003
  N   -0.99097217389825      5.13622694660425      2.74058371752718
  N   1.44351657225065      5.10212789601947      1.60532495574197
  N   -2.19478295065185      4.11644263839878      0.34318555389622
  N   0.29456979013296      4.04805479448264     -0.84972296714125
  O   0.04874681097549      2.77553624592994      1.74062725630692
  C   -1.67070910027404      4.48673115978433      3.70962594542053
  C   -2.15955766735856      5.16410010533063      4.82934540198897
  C   -1.95335979484547      6.54531405689977      4.93759027619292
  C   -1.25857017257892      7.21912268877058      3.92125190243825
  C   -0.79039914778984      6.47929541573386      2.83873995028162
  C   0.02260246839625      7.00175032713884      1.66919542304813
  C   1.42335333344811      6.44395962991637      1.83416558721325
  C   2.56702423298980      7.14963446038565      2.19624871366587
  C   3.77249976823136      6.44193193486004      2.32309429936133
  C   3.78883850221450      5.06337808903186      2.07684375259707
  C   2.60328010947825      4.41957382190915      1.71266863134744
  C   -2.91295233681706      2.96782367083851      0.17847970416574
  C   -4.01122434662183      2.94211126353413     -0.70476930646852
  C   -4.40886376129402      4.08542209443984     -1.38882182700379
  C   -3.72635406942712      5.28273113909026     -1.13479387663243
  C   -2.64720850235016      5.26125835604923     -0.26031875984384
  C   -1.98518021277942      6.53774651082779      0.19380347146197
  C   0.28316633016461      6.48739625093547     -0.79422752390932
  C   0.32170771712163      5.20327452913131     -1.58209489437672
  C   0.47209721585569      5.22821654051976     -2.96504700022648
  C   0.63669415739889      4.01652111570048     -3.64356156095883
  C   0.66063085135517      2.84189381079263     -2.89699901960297
  C   0.48740831063314      2.86161014898808     -1.50001593135427
  C   -2.62087880738364      1.73829434108584      0.99639609089727
  C   0.53603439192655      1.56086853794921     -0.74815811279820
  H   -1.80703487044877      3.41906797570633      3.56296105029132
  H   -2.69336630098115      4.61278051064331      5.59884369072259
  H   -2.33196199804270      7.09370852049413      5.79695972883929
  H   -1.08972748109095      8.29229532059115      3.96899110124618
  H   0.00077538602249      8.09467507149942      1.58445094023676
  H   2.52143442017753      8.22253110538433      2.36734658752515
  H   4.68502917467683      6.96315105895777      2.60278573092895
  H   4.70606543128563      4.48693444185887      2.16311780364850
  H   2.54869732650137      3.35503842390522      1.50467800328839
  H   -4.54761177187724      2.00463863129210     -0.83109072853449
  H   -5.24716906523488      4.05869849720779     -2.08114111731884
  H   -4.03443442083606      6.21847033864676     -1.59517377743815
  H   -2.12388169840095      7.35333870547303     -0.52629659123792
  H   -2.44076821651254      6.84956634401298      1.14292465176823
  H   1.30369523878219      6.75285445212932     -0.49031896040103
  H   -0.11146733429479      7.32003486788174     -1.38962450759524
  H   0.47256396823656      6.17887166337780     -3.49320973673893
  H   0.75469256371973      3.99363576024679     -4.72444115897445
  H   0.80930428409460      1.88125803680074     -3.38313817888783
  H   -1.61749610885824      1.75010720661860      1.42586846409186
  H   -2.76405694772034      0.83317172737957      0.39415639877026
  H   -3.35355717820828      1.68820006084656      1.81731184999948
  H   1.24004498672935      1.60508229649817      0.08715581536223
  H   0.83423583165113      0.75900882452942     -1.43066800243621
  H   -0.43952703997966      1.30704456096167     -0.32319962936008
  H   0.39824839765489      2.87508728159906      2.65517859457725
