56
Coordinates from ORCA-job AVINUO_2_3_tpss_d4_lanl2dz_631gpol_Fe2.opt
  Fe  -0.38892371414159      4.36969361833757      0.97022379284008
  N   -0.58926068167021      6.40718790599948      0.36255118526114
  N   -1.04142122130123      5.08141124433140      2.69039465475385
  N   1.39950796644540      4.97105594599147      1.55729618809977
  N   -2.24520821023906      4.18765948958427      0.27394924554426
  N   0.27845236121521      4.08638086927605     -0.88393709059400
  C   -1.72959856183709      4.46712147707879      3.67863723124962
  C   -2.17894832055124      5.16197722639248      4.80373857303156
  C   -1.92396177784591      6.53482703233583      4.90411899851926
  C   -1.21996970691054      7.17556114271912      3.87397864343709
  C   -0.79280300717396      6.41966629506699      2.78462511505292
  C   0.02746176973053      6.95582178497136      1.61811594310805
  C   1.40731903850170      6.32178715869259      1.75084301122135
  C   2.56915833274740      7.01300690728849      2.08779953282232
  C   3.76301788767826      6.29234802469791      2.23617374281086
  C   3.75174750110492      4.90661162326835      2.03667676940047
  C   2.55337663413554      4.27936902694109      1.68916750020245
  C   -2.95050902864554      3.03340137448745      0.14637733310111
  C   -4.15996545862231      3.01080705525175     -0.56524998781089
  C   -4.65182718583798      4.18352095092898     -1.13735533452158
  C   -3.94623465585588      5.37915330603831     -0.94529460267584
  C   -2.75839718155387      5.35371468700730     -0.21940511474216
  C   -2.04086852626508      6.63617982726349      0.17119167227168
  C   0.19785743865661      6.54646860633038     -0.88668647489792
  C   0.30221065614591      5.22640393751469     -1.63538313007642
  C   0.53174135548219      5.19031837454544     -3.00855179158284
  C   0.78358885915253      3.95696037510270     -3.62409559305358
  C   0.83200552752100      2.80699547726318     -2.83607507297330
  C   0.58230994432782      2.89289274606263     -1.45811404555605
  C   -2.42188389798444      1.79684492190910      0.82539343851891
  C   0.69429734556404      1.68439347291945     -0.56565230414970
  H   -1.90583574880195      3.40181856383077      3.55635261483297
  H   -2.71756650978642      4.62994287318021      5.58339427219135
  H   -2.27006181113885      7.10007405000954      5.76626225309490
  H   -1.01098366217073      8.24212627325406      3.91399170830977
  H   0.08881371561939      8.05247768589856      1.64166023800329
  H   2.54144431917008      8.09117676991226      2.22809188565502
  H   4.68489751900738      6.80593548455324      2.49886220948665
  H   4.65578250201147      4.31372639749540      2.14741002564019
  H   2.49642769252424      3.20741529035345      1.52105347178949
  H   -4.70225725023747      2.07291519507445     -0.66060709514984
  H   -5.57971231161933      4.17555394036075     -1.70462649065933
  H   -4.32122480446904      6.32114533833914     -1.33919062503264
  H   -2.22166965251034      7.42544742687109     -0.57104455006270
  H   -2.46101764429277      6.98552311532451      1.12395014309785
  H   1.21304743285066      6.86831534270886     -0.61828613324634
  H   -0.22777983267114      7.32575116057017     -1.53297838937590
  H   0.52862866746766      6.11376122963281     -3.58331122789011
  H   0.96016876570458      3.90129720667318     -4.69581327917096
  H   1.06310877460767      1.83885079042626     -3.27432036917554
  H   -1.52702379087724      2.02272183251042      1.42230070501162
  H   -2.16698495051991      1.01350211007542      0.10115319485312
  H   -3.18393637032367      1.38151705797004      1.49805590853346
  H   0.48739704508192      1.94600711237410      0.48163495932506
  H   1.70991130209781      1.26949684803151     -0.62064511624613
  H   0.00295512130296      0.88895901897137     -0.86850234242781
