57
Coordinates from ORCA-job AVINUO-oxo_2_3_tpss_d4_lanl2dz_631gpol_Fe2.opt
  Fe  -0.32217585546719      4.37827176323728      1.02540349629189
  N   -0.55542095116216      6.32007689538993      0.40394988033383
  N   -1.00563838038446      5.14748245298083      2.69797784657022
  N   1.43140415241712      5.10279156771777      1.54890147281146
  N   -2.20808239312902      4.12507958899563      0.33099873921885
  N   0.29891242194839      4.06653758172167     -0.86977330310427
  O   -0.00995240652260      2.91671772327318      1.69998825628052
  C   -1.62735125666424      4.48064239203616      3.69022470712515
  C   -2.07779302319509      5.14985072723169      4.83173115076903
  C   -1.88148075490174      6.53198777783473      4.93776494805824
  C   -1.22471789146423      7.21691833088285      3.90320010294511
  C   -0.79512079597296      6.48689335419743      2.79866292019165
  C   0.01020057845523      7.01095551947143      1.62293781230594
  C   1.41012647915088      6.44256072799792      1.78224988598805
  C   2.54988465027558      7.13818595007326      2.17443546708900
  C   3.74500542148906      6.41926751893522      2.33512824717112
  C   3.75383914390288      5.03888494635117      2.10278331791998
  C   2.57265858564476      4.40431400879435      1.70740166320022
  C   -2.92809575769008      2.97279877872499      0.19451181503949
  C   -4.06426758571404      2.94902563161015     -0.63839327883794
  C   -4.49168904992558      4.09323293856571     -1.30331928960786
  C   -3.79874972734517      5.28981052040098     -1.08000753652426
  C   -2.68269601338256      5.27203430003251     -0.25188168856870
  C   -2.00971840224124      6.55449297918359      0.17114418434480
  C   0.25290936106979      6.51205510182547     -0.83607684142117
  C   0.33861670730081      5.21899524375066     -1.60633697185295
  C   0.54684853208291      5.22987792267449     -2.98220698548139
  C   0.76116566045581      4.01506158462327     -3.64069836502736
  C   0.77100733088384      2.84649065615634     -2.88392951483874
  C   0.53287012573298      2.87481109237883     -1.49743732012093
  C   -2.60014568574333      1.73604555734166      0.98844230061793
  C   0.54526137421532      1.57830253467364     -0.73603887300562
  H   -1.73298380544742      3.40930743763508      3.55089008517489
  H   -2.56970395379775      4.58882247181949      5.62186147567309
  H   -2.22980730188058      7.07255982355574      5.81483094349918
  H   -1.05107197147809      8.28906268438288      3.95653623204427
  H   -0.00247549335303      8.10484341944110      1.54723740243387
  H   2.50802588968073      8.21074166837943      2.34878970859679
  H   4.65390310752923      6.93299448758242      2.63972659266576
  H   4.65990563508220      4.45218696522728      2.22864594124256
  H   2.50578478035292      3.33585745304917      1.52838440031908
  H   -4.60612117490803      2.01190962864853     -0.74209996337681
  H   -5.35947382966502      4.06639853672895     -1.95835529246401
  H   -4.12614202936380      6.22527938025578     -1.52756357278383
  H   -2.16326864258636      7.35602957649825     -0.56196802673343
  H   -2.45425057101946      6.88368168185628      1.11976489186681
  H   1.26474412245391      6.81739679457844     -0.53963292912616
  H   -0.16675312052047      7.31934740914639     -1.44923458292502
  H   0.55551560282891      6.17535756629845     -3.51957145353694
  H   0.92781186348300      3.98509021540954     -4.71500911408116
  H   0.95651983966099      1.88433246939567     -3.35425751034676
  H   -1.58811701880730      1.74992605195020      1.39692916111136
  H   -2.74339330720107      0.83762423473555      0.37615860498518
  H   -3.31084240343323      1.66319380863163      1.82612274849877
  H   1.06348095036964      1.66730709883298      0.22234857910869
  H   1.03196132116355      0.80689264500113     -1.34157264386781
  H   -0.47596308326309      1.24050282189455     -0.52359992385975
