38
Coordinates from ORCA-job AFULAO_2_5_tpss_d4_lanl2dz_631gpol_Co3.opt
  C   13.04463692965779      1.55966798847269      1.86211350915288
  C   13.56897293882867      0.12322077160192      1.82162009633960
  C   13.16112662018462     -0.67585506754390      0.58262584491393
  C   11.37219309224888     -1.91480069423979     -0.61468550796251
  C   9.93123519551970     -1.69838905064524     -1.06067651401590
  C   8.39027071883530      0.14092842739566     -1.78006849225285
  C   8.31004954848709      1.62174191053442     -2.16221549772458
  C   8.47915732224854      2.60253896584203     -1.00078709549285
  Co  10.32576751818598      0.68702064913525      0.53469571463211
  N   11.54896110338700      1.58601733819640      2.05469541696320
  N   11.68834866658930     -0.98103920135286      0.52239254084249
  N   9.76733228132496     -0.23655587225070     -1.32097472399049
  N   9.86670456513618      2.53858052619631     -0.40036103253752
  N   8.90346110375545      0.20512264158542      1.56356653983739
  N   8.02197435934329      0.31323907533232      2.40114888121208
  N   7.17263315886507      0.38212000801718      3.18941495795921
  H   11.25685031481801      2.55759392975539      2.22017736698306
  H   11.33341203345669      1.10047555929828      2.93571700292777
  H   13.52040805097140      2.11293614694440      2.68164143533733
  H   13.26541790632683      2.08773785891056      0.92544918120654
  H   14.66599710283281      0.16894665115321      1.83147961934637
  H   13.28393736303200     -0.41435603703938      2.74041870153215
  H   13.70980504484763     -1.62847792683636      0.55778401786331
  H   13.41088334383431     -0.12675723514246     -0.33540255801677
  H   11.42909502976818     -1.45328488674558      1.39962754328592
  H   12.06113564986348     -1.67259330369746     -1.43419972829079
  H   11.55321850072969     -2.95561737318171     -0.31977726033321
  H   9.21638794922175     -1.97776333900747     -0.27700558071657
  H   9.71007674631322     -2.28906346234879     -1.96055504841696
  H   10.42435578854876      0.02269677152236     -2.07086558887236
  H   7.69899017060380     -0.09918046920976     -0.96331652116046
  H   8.12317401991679     -0.48091379105825     -2.64665490876512
  H   9.03560763271964      1.84797232038555     -2.96063628769530
  H   7.31979284642697      1.80027657598594     -2.60139860009973
  H   7.77339222965179      2.38151879798217     -0.19168547991730
  H   8.29321478641824      3.62720484398515     -1.34634385515484
  H   10.54897045660354      2.77198336722660     -1.13566271061017
  H   9.95005191049554      3.30200658484047      0.28290462169095
