44
Coordinates from ORCA-job AFULAO-CH3OH_2_5_tpss_d4_lanl2dz_631gpol_Co3.opt
  C   13.17961889202110      1.31909971964206      2.10976816977439
  C   13.31137474356676     -0.19421865358798      2.29598123294593
  C   13.05142443345568     -1.03095395138248      1.03821629643818
  C   11.34812505115743     -1.97053640216808     -0.50489130027627
  C   9.90762080549693     -1.78249317505251     -0.97040495697781
  C   8.28853439693872     -0.01509838085908     -1.66848088919361
  C   8.11413343151220      1.45448622695597     -2.07150650507053
  C   8.17181453429379      2.46847168537941     -0.92480414843417
  Co  10.47959124079451      0.76324428446774      0.36969438966748
  N   11.76104809539347      1.74688905740948      1.84909115548422
  N   11.60487931848849     -1.07867568457658      0.66718488893825
  N   9.70444297779378     -0.34014119822331     -1.30253224077302
  N   9.54426931846945      2.58628735465250     -0.32068675153541
  N   9.11924813710893      0.37560281777112      1.54763059323673
  N   8.10057198294496      0.45983471844713      2.21116056984823
  N   7.12847548648806      0.52721084569389      2.84549982034862
  O   12.09737087727823      1.45881841622472     -0.99889450296606
  H   11.75928211931799      2.76054722950282      1.68159056050907
  H   11.23371581437329      1.62084631445161      2.72199124751689
  H   13.55678785775924      1.84082703121497      2.99893980719427
  H   13.79402124458741      1.66123798658585      1.26406841535884
  H   14.34036164965918     -0.39576367570401      2.62180025586535
  H   12.66529898444430     -0.53439054364594      3.12079149363528
  H   13.41609799758705     -2.05693571038841      1.19319808696112
  H   13.59667972265948     -0.62436875309357      0.17449279683170
  H   11.09838589210214     -1.47071545009201      1.47228099619441
  H   12.05046889552824     -1.67864236033147     -1.29686818396686
  H   11.54523290108198     -3.02120819019180     -0.25158660132910
  H   9.19861565372461     -2.04053429321124     -0.17342174850164
  H   9.69257645580987     -2.42155629764680     -1.83821413408709
  H   10.28750279906786     -0.12984808746187     -2.12135101910714
  H   7.66499756200370     -0.26050771543987     -0.80021121544917
  H   7.97909042305682     -0.66656460004132     -2.49874756284683
  H   8.83654990306432      1.72336483866384     -2.85959829997659
  H   7.12435186050605      1.55052178310449     -2.53732650215638
  H   7.48837111539618      2.17362674820984     -0.11990337486420
  H   7.85229291207578      3.45419478046364     -1.28710565795219
  H   10.18365655749686      3.00803931831528     -1.00502069878922
  H   9.49306238214180      3.26299287105486      0.45055726624041
  C   12.31859373213364      1.43761707517305     -2.44594875897926
  H   13.06636924793783      2.19184242288046     -2.71006153255852
  H   12.64661495655228      0.44469407785057     -2.77597092451735
  H   11.36437118441991      1.70083226430492     -2.90901234997726
  H   12.96850645230851      1.40284325467806     -0.55949818270364
