39
Coordinates from ORCA-job AFULAO-oxo_2_3_tpss_d4_lanl2dz_631gpol_Co3.opt
  C   13.10540030004887      1.43151019821722      1.86773544606292
  C   13.43559656085200     -0.04756865925610      2.04057971385763
  C   13.14235939538547     -0.87755857942999      0.79264229898434
  C   11.42997792526274     -1.86514286744898     -0.70025621500564
  C   9.99715489558937     -1.65998830007826     -1.14871914364066
  C   8.40733624546340      0.14811134445520     -1.75734301848689
  C   8.22483786498399      1.63545594010440     -2.05531564234818
  C   8.29014704004705      2.49860862198828     -0.80094230477835
  Co  10.69696777925299      0.76763315026255      0.14434432201921
  N   11.62347653085220      1.64382261835759      1.73351866894866
  N   11.68111481891938     -0.96606994577839      0.47524211802983
  N   9.81895292734275     -0.19467039227867     -1.40499168089918
  N   9.66296804793149      2.49800285319801     -0.18023552928373
  N   9.36370962554303      0.05233768310604      1.31373693154760
  N   8.48441955058460      0.69136229883777      1.89635910089719
  N   7.62964914387064      1.22237561861769      2.47377188314473
  O   11.89910911915778      1.32026392760600     -0.87822593321395
  H   11.45459013077728      2.65611041104336      1.68943725315029
  H   11.14785321611560      1.30121873039391      2.57916276570715
  H   13.44196546288394      2.00413965436979      2.74267339237495
  H   13.57412145042685      1.85041937136929      0.97106974879265
  H   14.51012712624141     -0.13185607633044      2.24748875923993
  H   12.92119485670663     -0.46491733108351      2.92040152843949
  H   13.50116146246537     -1.90765811734357      0.93410876520326
  H   13.63514699217495     -0.45713076905352     -0.09166964544731
  H   11.16036492198699     -1.32410796927734      1.29062700127523
  H   12.14277461797913     -1.58238406155613     -1.48403884113129
  H   11.61960193629201     -2.90692689003794     -0.41166851433363
  H   9.28057164009921     -1.94535083329089     -0.37096621819936
  H   9.77771545660078     -2.22483797517848     -2.06433232634101
  H   10.43247971589087      0.08969266827155     -2.18263638645387
  H   7.77309672651259     -0.18314942703076     -0.92718738997626
  H   8.14690682793921     -0.44727200299266     -2.64484550961879
  H   8.94809811479662      1.97777653497038     -2.81114990623088
  H   7.23025627324593      1.77023305778630     -2.49928741545258
  H   7.58047194619760      2.15291653432062     -0.04276724163152
  H   8.04770776119091      3.54322314017974     -1.03891707516476
  H   10.30358696512219      3.02997090816339     -0.78534491600346
  H   9.60072862726522      3.01890493182650      0.70404115596619
