40
Coordinates from ORCA-job AFULAO-OH_2_6_tpss_d4_lanl2dz_631gpol_Co3.opt
  C   13.20230227325593      1.28962999082835      2.09994471584635
  C   13.29328953945418     -0.23375265493150      2.20521662052075
  C   13.04039503943245     -0.97982310229724      0.89274765093812
  C   11.40487331524632     -1.80139912871321     -0.77116031602118
  C   9.96742314110354     -1.63756178420739     -1.23916529393728
  C   8.24254277110839      0.05799789929094     -1.73637907479462
  C   7.93298666026431      1.48217824580157     -2.19736271195654
  C   8.13274480146335      2.54953473428686     -1.12030100884315
  Co  10.75158256197472      1.02098162500238      0.05376389314155
  N   11.79206225598552      1.74537756207145      1.88535214563441
  N   11.60625391977588     -0.99702968548930      0.46654252916325
  N   9.69576879113054     -0.19736409774958     -1.49925357009152
  N   9.57483262347970      2.69722878137828     -0.76563853220551
  N   9.21027569026765      0.70181914532248      1.22778096158171
  N   8.97784426896777      0.47366574898850      2.40346814283372
  N   8.71967035606903      0.25862984094258      3.52215168058011
  O   12.14329307130077      1.53645830418238     -0.94011295227971
  H   11.78290133958818      2.76945024560914      1.79563832824076
  H   11.25232920649480      1.54207815812043      2.73505272924088
  H   13.58958654528711      1.75222525160556      3.01814663031155
  H   13.79894280308123      1.65834240259155      1.25834498944846
  H   14.31330394795518     -0.48102729201247      2.52742989733710
  H   12.63042574859406     -0.60812218855455      3.00192128933225
  H   13.36472067473071     -2.02633696571875      1.00517829804466
  H   13.61188723981368     -0.53585439309658      0.06978728781014
  H   11.04640534293880     -1.41303367149088      1.22163508733624
  H   12.11237015267227     -1.42893494677585     -1.52200909709033
  H   11.62940817676394     -2.86045810216132     -0.58013568549908
  H   9.26089721163732     -1.97001058495247     -0.46799531096428
  H   9.78667783833820     -2.23215301782134     -2.14572801666334
  H   10.22901676960735      0.09596076252764     -2.32987554227488
  H   7.71663210287041     -0.17723771425009     -0.80340326471052
  H   7.90024870633300     -0.65225049548193     -2.50561274968593
  H   8.51033593598374      1.73321929252860     -3.10161338187800
  H   6.87766643055782      1.50713672114141     -2.49814718585978
  H   7.59201959788901      2.29288373283995     -0.20318993005012
  H   7.75960367144396      3.51787689692164     -1.48344074156630
  H   10.11639679640517      2.99221218860102     -1.58697908321490
  H   9.68178222755278      3.44090670226708     -0.06483186667686
  H   12.97113045318025      2.05429559285464     -1.01992756107819
