38
Coordinates from ORCA-job AFULAO_2_1_tpss_d4_lanl2dz_631gpol_Co3.opt
  C   12.91465945220040      1.58535256782874      1.85774847809570
  C   13.34972421520925      0.13104682163111      2.01678152322740
  C   13.00083937620948     -0.73979156851851      0.81156704792092
  C   11.24562269114690     -1.90598468428431     -0.49036028416314
  C   9.87085560872366     -1.62304069681198     -1.05887577432619
  C   8.44082606748362      0.21662628432628     -1.86705881727342
  C   8.32056465270266      1.69692361797600     -2.21764305963016
  C   8.42637757813222      2.59950751747290     -0.99450736509414
  Co  10.56291804504338      0.80191405196762      0.18864397884579
  N   11.40937632413232      1.67936455870939      1.77224320153878
  N   11.51269422340823     -0.90121349541278      0.60768383952675
  N   9.81993106504822     -0.15664529553684     -1.39162564867447
  N   9.81522942210094      2.55760691022568     -0.40197628480438
  N   8.97230511250955      0.40185206534522      1.12511127119839
  N   9.10837337422102     -0.14978155781406      2.22872337739311
  N   9.14315925562585     -0.66658172990968      3.27001792686795
  H   11.14832780716179      2.67244673407904      1.82419564103419
  H   11.01832489169825      1.27526322636263      2.63512991928497
  H   13.25276828812558      2.18906342611123      2.70923073057276
  H   13.32584883797789      2.02914386870751      0.94135089459043
  H   14.44077443123485      0.11166725475456      2.13612362801486
  H   12.93535337058210     -0.29817817263707      2.94268757329752
  H   13.43236230411320     -1.74376053234687      0.92545416431296
  H   13.40468099632014     -0.30870825703434     -0.11558281730275
  H   11.12176482917690     -1.28416861416844      1.47972442098624
  H   12.02255858453656     -1.76821290542626     -1.25327408724396
  H   11.33047684497627     -2.92591225919081     -0.09745638495713
  H   9.07814161723015     -1.80888428769973     -0.32613597044818
  H   9.67274246960709     -2.22512427457529     -1.95504242240088
  H   10.46913172722189      0.01111632046243     -2.17760064305704
  H   7.75184274229704     -0.05269611159320     -1.05909541121640
  H   8.21537177079055     -0.40666938466885     -2.74292939161051
  H   9.05474435618801      1.98498099834292     -2.98741421777838
  H   7.33237101350653      1.85332584272781     -2.66938576793256
  H   7.74216026081980      2.27865560230222     -0.20203384195155
  H   8.20320031576295      3.64139177140918     -1.25631099661182
  H   10.46481048759325      2.98314756938384     -1.08231730118081
  H   9.80578558918095      3.20185681750269      0.39840887094913
