40
Coordinates from ORCA-job AFULAO-OH_2_2_tpss_d4_lanl2dz_631gpol_Co3.opt
  C   13.08819097709182      1.42109800546097      1.84680330964857
  C   13.37311655659052     -0.06286754696531      2.06098312964118
  C   13.12598214855913     -0.90878693918845      0.81346083881458
  C   11.44631253465910     -1.84820513336776     -0.75780935663347
  C   10.00776883517523     -1.65778598316402     -1.19911568956451
  C   8.36303208105310      0.13097339070978     -1.71444449808459
  C   8.16131461931329      1.61406690742728     -2.02114929374253
  C   8.27847154622557      2.50084776255963     -0.78663240296024
  Co  10.66073796149111      0.75790913166964      0.15058641916795
  N   11.61767236255488      1.68707356161536      1.67680190057236
  N   11.67775052853170     -0.96273866226154      0.43214767810714
  N   9.79018315934264     -0.18964506216429     -1.39382308881831
  N   9.66391447657255      2.47397222627461     -0.20028943133884
  N   9.38907997738773      0.01391128672754      1.31504722639473
  N   8.52988089115911      0.67126240580879      1.91685808564784
  N   7.69164066080788      1.19753758517164      2.52015721723720
  O   11.87593660599561      1.46939428800964     -0.98374594255809
  H   11.51219438717253      2.69734630576104      1.52552728502850
  H   11.13344536237053      1.46766803787285      2.55711277010470
  H   13.43251928388508      2.00559009813788      2.71016567513155
  H   13.58221751141952      1.80354355064876      0.94771302566141
  H   14.43196028130370     -0.16894006708362      2.32971520720767
  H   12.80051680096694     -0.45393938403602      2.91635330727831
  H   13.46215825362878     -1.94201175183966      0.98001421145126
  H   13.68395836007595     -0.51404426786393     -0.04539156737663
  H   11.14876483057423     -1.35322951550943      1.22606929726507
  H   12.15142998209606     -1.54543226477577     -1.54293328369543
  H   11.65636179084631     -2.89307832796000     -0.49628243468582
  H   9.30307210133993     -1.99174179141838     -0.42930046746256
  H   9.79707583405573     -2.19528389270996     -2.13282199017071
  H   10.37528539583254      0.14479436098191     -2.17305620149425
  H   7.75402985020086     -0.19909372852628     -0.86476060407620
  H   8.08466284672656     -0.47511285064404     -2.58848541116331
  H   8.85356653368793      1.94636759368123     -2.80994158730603
  H   7.14986940434233      1.73994101475046     -2.42801848599054
  H   7.57781603182913      2.18720561016676     -0.00570530989399
  H   8.05086735266068      3.54449638833333     -1.04119743090478
  H   10.32525852591103      2.91973599055289     -0.85476812136771
  H   9.64671257262382      3.06041730618454      0.64384394491452
  H   12.56810078393850      0.84452436097195     -1.29184792998601
