46
Coordinates from ORCA-job COPQAA-OH_1_2_tpss_d4_lanl2dz_631gpol_Co3.opt
  Co  0.57005116255792     13.13823477831374      3.29067281353804
  O   -0.31079965710005     14.02337579782636      1.90282771214533
  Cl  3.41665336434350     10.24753488951269      8.45049498270213
  O   -1.25460484296623     10.77431090562273      2.65704333393403
  O   -0.17945560982673     15.41620035957748      4.93868196935725
  H   0.59017877471664     15.69831519026141      4.35477462154809
  O   2.14814325164156     15.71717104313395      3.49856018737910
  O   1.30511933989999     10.87147412614752      1.61794651510320
  H   0.32670689808535     10.77688607838129      1.82817028220797
  N   -1.01684732771376     11.92046016230991      3.52470602504494
  N   -0.56754843371119     14.23343476873124      4.34537159591478
  N   2.17691285378968     14.31567854093629      3.10815861554187
  N   1.45407563627193     12.24165900031830      4.88509938948108
  N   1.55823776739860     12.18202128596760      1.99648822793148
  C   -2.10935487166106     12.59204931905012      3.83154953741524
  C   -3.51311349765179     12.17095814856335      3.52427422180660
  H   -3.52836811036954     11.17284207592147      3.08188585376047
  H   -3.96140933867693     12.87755456688306      2.81084448754702
  H   -4.12799758305684     12.18227621792965      4.43400764902839
  C   -1.81691668981109     13.86495309499318      4.50088468887742
  C   -2.84771701128092     14.67726238881132      5.22542689875684
  H   -2.48883869621536     15.70179947028122      5.35517359691492
  H   -3.05662425007175     14.25139512887201      6.21762387603415
  H   -3.78856886368131     14.69179919470361      4.66234522913736
  C   2.86411487230440     14.08504519590696      1.99684924896893
  C   3.74903024878397     15.07445152701401      1.29896763967829
  H   3.76828885381389     16.01922945777084      1.84613597614620
  H   3.37809417740562     15.26699026552852      0.28256297181727
  H   4.77186759379702     14.68333843345397      1.21144346727968
  C   2.64780684854804     12.73467522659480      1.49129007279476
  C   3.52718882044577     12.04118694376417      0.49398209529225
  H   2.92105855296152     11.42157431657186     -0.17618135414678
  H   4.24021252938292     11.37746249473177      1.00495795802166
  H   4.09823905128896     12.76549247429181     -0.09483904029529
  C   1.88797212734225     10.96244036443665      4.81513255551290
  H   1.74824059732180     10.46098342214471      3.86064782740135
  C   2.49979071825446     10.30908374188210      5.88329094884089
  H   2.83933567906732      9.28249211284619      5.78104952175277
  C   2.66437224021019     11.01232437526529      7.08305829108687
  C   2.21856695401082     12.33712221933543      7.17207274886679
  H   2.32864937154677     12.90774927711392      8.08963630010915
  C   1.62368727391762     12.90946014856794      6.04930188514770
  H   1.25535842990681     13.93204723220152      6.07335897167463
  H   -1.06918292653529     10.01266529305108      3.25298423287010
  H   2.71006718735538     15.72443623515677      4.30726656797205
  H   -0.00030346604093     13.61188270931923      1.07001880209990
