44
Coordinates from ORCA-job COPQAA_1_1_tpss_d4_lanl2dz_631gpol_Co3.opt
  Co  0.52892150442490     13.17740316716294      3.19867985792086
  Cl  3.26981206599555     10.30266500082035      8.39269686255134
  O   -1.23726475230206     10.93135805936325      2.49519040358449
  O   -0.25180277623623     15.50099353541293      4.78117675825854
  H   0.57191254596851     15.78174867355847      4.28443729819921
  O   2.01790337421274     15.70783886317732      3.38239973662339
  O   1.23452025930079     10.92917627866277      1.47745177605705
  H   0.26670722144661     10.79802168332458      1.70119690054365
  N   -1.06722304989599     12.20412125991369      3.13502974186244
  N   -0.61835155381448     14.33556643060698      4.12321992893804
  N   1.87013113838241     14.41264323267215      2.78450185624871
  N   1.37265643293933     12.29882543756040      4.79391892924020
  N   1.45851747964343     12.24247413787537      1.86619243164223
  C   -2.12869189961803     12.64797654321580      3.81451207597355
  C   -3.42379533815224     11.89502906766286      3.89861574160615
  H   -3.62510423444894     11.38744767630765      2.94838336656522
  H   -4.25434931229946     12.57176417546236      4.11969161112179
  H   -3.39818285748212     11.13499102388390      4.69554521127744
  C   -1.84946181885795     13.91631995300576      4.42466516901016
  C   -2.77378070400803     14.71644219360330      5.29347976092443
  H   -2.80717373143788     15.75679366932507      4.94738019729026
  H   -2.41480474243379     14.73106449734540      6.33226949895669
  H   -3.78633836873498     14.30373227053429      5.28464268813455
  C   2.84608910153377     14.05679457027525      1.94378064994157
  C   4.01355575938880     14.94251092206274      1.62126755537111
  H   3.68719152778602     15.98715650405861      1.56014697825638
  H   4.46635267757361     14.65820128600452      0.66721413321511
  H   4.79852318057237     14.87289488851386      2.39103444781753
  C   2.60864375492995     12.74580956075029      1.41156353877273
  C   3.49216393856588     11.98943414263642      0.46451757874793
  H   2.89575549049260     11.58431114711008     -0.36199736398699
  H   3.96649310380583     11.13705887521191      0.97135015645247
  H   4.27990033596890     12.62913615994282      0.05712625509837
  C   1.89907234087526     11.05355222062356      4.70141900357592
  H   1.83896841470020     10.57645914370270      3.72504377050672
  C   2.49173797864415     10.40209679885809      5.78140394615093
  H   2.90297902344983      9.40368209058127      5.66364161567810
  C   2.54257878852595     11.06783669030174      7.01283596729584
  C   2.00221367632709     12.35574762532472      7.12295141264753
  H   2.02490224478371     12.89715677171961      8.06431155739269
  C   1.42853308809254     12.93157260065196      5.99087893495800
  H   0.99363706071878     13.92848847130394      6.02946206443706
  H   -1.31817409326173     10.27011664400119      3.22157869022760
  H   2.80982572393429     15.65078605590578      3.96639130491259
