44
Coordinates from ORCA-job COPQAA_1_3_tpss_d4_lanl2dz_631gpol_Co3.opt
  Co  0.63004634312143     13.07892747216881      3.38186037294782
  Cl  3.39504026492578     10.14604638281703      8.66916765154278
  O   -1.23045719594546     10.77729510074638      2.71645759174586
  O   -0.20969776934211     15.48882724317880      4.87911322127981
  H   0.63797362570858     15.72884174598396      4.40172167406086
  O   2.22727336813210     15.64751536732979      3.54803491888238
  O   1.28992347783673     10.84951459478016      1.54369128035900
  H   0.33516366095315     10.71992474189809      1.81899345558905
  N   -1.01096684779927     11.99108936310566      3.49769452408172
  N   -0.57061459665939     14.31092058549896      4.23801054436676
  N   2.16253328617238     14.27341929759051      3.05967680278089
  N   1.51535119818209     12.15745457616859      5.06763345078509
  N   1.52314367268823     12.15879268386749      1.94535891680945
  C   -2.12364029782221     12.65997000061707      3.77954428412885
  C   -3.51883879131771     12.18073980024534      3.50919678296232
  H   -3.49764106452628     11.20073063344573      3.02774530296910
  H   -4.04829506588712     12.88650930994583      2.85419581689840
  H   -4.08890502693772     12.11121344866656      4.44617958851152
  C   -1.83732591607799     13.95326578794666      4.38851527851176
  C   -2.84699676885796     14.79861502285218      5.10557935811885
  H   -2.65275422625235     15.85911210505498      4.91009599768167
  H   -2.77933017884468     14.64571109602181      6.19306522820003
  H   -3.86475740590412     14.54840777059990      4.78999324998471
  C   2.81749809938110     14.07436744213829      1.92102119226025
  C   3.70797197708023     15.07356628451179      1.24393015861559
  H   3.73965412327222     16.00331715259065      1.81593661083843
  H   3.34143076590820     15.29261777336555      0.23141821790356
  H   4.72683522883366     14.67391297825254      1.14549216008334
  C   2.56700893291699     12.74483378574785      1.37823188798975
  C   3.38459794880297     12.09867704260799      0.30025322210158
  H   2.73793766778552     11.49987453977064     -0.35083286769036
  H   4.13408167266985     11.42062359104375      0.73503762063969
  H   3.91156548044316     12.84932161040314     -0.29708442295952
  C   2.14129585609120     10.96505134664644      4.95079060646091
  H   2.16035524004952     10.53192450950163      3.95228061110210
  C   2.73473036873453     10.30682271137218      6.02783516376314
  H   3.23025812005233      9.34974168113784      5.89242113824331
  C   2.67338837543624     10.91810389605169      7.28674216374981
  C   2.02859662620366     12.15365922710250      7.42767949349033
  H   1.96584993770328     12.64713488707246      8.39327330197198
  C   1.46587827525266     12.73225093805621      6.28990130123133
  H   0.95284575020844     13.69070843771953      6.34556264610921
  H   -1.01907695502565     10.06874572498510      3.36662788663089
  H   2.78676876265374     15.55710030939045      4.35315661426554
