45
Coordinates from ORCA-job COPQAA-oxo_1_3_tpss_d4_lanl2dz_631gpol_Co3.opt
  Co  0.58550596611819     13.12993262290668      3.28121965782445
  O   -0.14516822740736     13.89496695951997      1.90955503386374
  Cl  3.32291526439036     10.21970077341556      8.54357439367682
  O   -1.29551597405947     10.74072426310280      2.70260858753221
  O   -0.18144321538317     15.42027158071856      4.92381139973385
  H   0.60391941035547     15.68557598966898      4.35989872105431
  O   2.27246625955869     15.69523995777494      3.53254939623620
  O   1.33588792000663     10.84594935761823      1.62430516226229
  H   0.35262627656242     10.78496543154906      1.80768608236413
  N   -1.05005460407719     11.88410616609367      3.56104678668477
  N   -0.58009326892305     14.23819791727687      4.32961814472182
  N   2.27776371609919     14.30189828485721      3.12726394563408
  N   1.44587871192458     12.22116401618007      4.93366443565736
  N   1.62256405244539     12.14303664286886      2.00981644320902
  C   -2.12596280826528     12.58505090737313      3.83548746756720
  C   -3.53305308263285     12.20392260060397      3.49296674745836
  H   -3.56916286932177     11.18707038374743      3.09664940004683
  H   -3.92395660504747     12.89253778056182      2.72970836662381
  H   -4.17993834147588     12.28330313047705      4.37611398652026
  C   -1.82038840420299     13.86307286121876      4.50915000847513
  C   -2.84702416213936     14.66866044765625      5.24760043142322
  H   -2.46569453727975     15.67505977060623      5.43824842377225
  H   -3.09560331690630     14.19753178426961      6.20944261724777
  H   -3.77153287799497     14.73830741628773      4.66109014949334
  C   2.88089599694589     14.08512848197399      1.97948235345417
  C   3.67509295856391     15.08915013678837      1.20279944980614
  H   3.82567793689476     15.99705720361257      1.79064616813291
  H   3.13107142621276     15.35330464777274      0.28412922240232
  H   4.64552169018173     14.67029282771090      0.90763470853040
  C   2.67245640392096     12.71346798926679      1.47654603013080
  C   3.53386118425753     12.08422057272373      0.42301524691674
  H   3.06369842244059     11.17038686088848      0.05098717500477
  H   4.52482292007935     11.83258597353819      0.82725505155733
  H   3.68118077370586     12.77938624570199     -0.41303275111141
  C   1.87978226612700     10.94117006405675      4.87483878816133
  H   1.76384693104888     10.43947470217626      3.91706847971447
  C   2.46288070798063     10.28392821691538      5.95661360539622
  H   2.80165648571218      9.25630265259847      5.86258381665041
  C   2.60352833472677     10.98668053955219      7.15995875971862
  C   2.16024211233625     12.31317994515235      7.23885627320534
  H   2.25205030579181     12.88266132804815      8.15912366016385
  C   1.59022669039100     12.88561821326213      6.10313779209568
  H   1.22104162344348     13.90827031742795      6.12261802248985
  H   -1.02428577679370      9.98655963927654      3.27458508577908
  H   2.76531532368825     15.66772639520139      4.38447727271741
