50
Coordinates from ORCA-job COPQAA-CH3OH_1_1_tpss_d4_lanl2dz_631gpol_Co3.opt
  Co  0.68046108286908     13.01048796084104      3.43010175650844
  O   0.39341167822097     14.48332260538166      0.49660390939133
  Cl  3.23073446303492     10.18400978716396      8.74948009934177
  O   -1.06919126842852     10.73100110066149      2.82201876344823
  O   -0.14702000418619     15.44549244131893      4.81535092053022
  H   0.72244302755574     15.66842446156546      4.36836077646767
  O   2.25483079454490     15.49694725912337      3.65590983922622
  O   1.33739391120060     10.76476496804364      1.66183608743653
  H   0.39630950181619     10.60964644330254      1.97024985345560
  N   -0.91662543794031     12.05082905203806      3.36672214060921
  N   -0.48752203433437     14.23447343481259      4.23001631371245
  N   2.07269415600103     14.20739011235581      3.04253065643865
  N   1.46915742606878     12.14021550726838      5.06247785803284
  N   1.58658854413797     12.06167152944391      2.08048620309398
  C   -2.00115701089432     12.54248266918055      3.97645622361830
  C   -3.29845004056017     11.79494693615020      4.07072032731701
  H   -3.28923425309619     11.07968420817078      4.90811105359746
  H   -3.47742417009462     11.23285112513664      3.14730834282062
  H   -4.13331589734678     12.48212719583205      4.23524732241717
  C   -1.73914030062339     13.84793479743484      4.50355779622803
  C   -2.69292200215772     14.72107808615204      5.26336939741745
  H   -2.70723138770458     15.72853463855120      4.82941199589429
  H   -2.37651944658333     14.82422239314483      6.31090824195830
  H   -3.70663299759286     14.31138819198813      5.24818562285979
  C   2.95284472955199     13.89756118559671      2.09781142272569
  C   4.06068111436552     14.78715338457938      1.62417409895895
  H   4.02795736165911     15.75187510952897      2.13534764091391
  H   3.94575698849067     14.96056510937841      0.54568463205798
  H   5.04239699997229     14.32210781871763      1.78767022486197
  C   2.68123092917899     12.59453598059643      1.54789557430107
  C   3.48740043983610     11.90321768141770      0.49122087990649
  H   2.84225887252859     11.64302855690280     -0.35796728019839
  H   3.91635755671948     10.96769350693962      0.87526803923909
  H   4.30003939059491     12.54360518349036      0.13695757920482
  C   2.05719993406562     10.92179081340967      4.98888232819236
  H   2.07801300387956     10.45757815574917      4.00503014355264
  C   2.61133130817870     10.28267772262679      6.09649036945381
  H   3.07584133643989      9.30612852091150      5.99431398579612
  C   2.55438114530648     10.93347548569781      7.33602883836136
  C   1.94868920620521     12.19377774848555      7.42730622709479
  H   1.88931596060403     12.72220064948731      8.37445798159776
  C   1.41968907146957     12.75761530079524      6.26782601236699
  H   0.94020677706432     13.73428030763556      6.28771509379433
  H   -1.06986552204976     10.12103325971396      3.59618443814381
  H   2.87900817075893     15.33343008118126      4.40073040847118
  C   -0.22039525881631     15.74382951446816      0.78314771769543
  H   0.00881910170954     16.09346293873935      1.80418032670583
  H   0.19049647589470     16.46097563211900      0.06568498562431
  H   -1.31494750591012     15.71084105014139      0.65781718473831
  H   0.08795407839495     13.85539239662455      1.18791964461692
