43
Coordinates from ORCA-job ABASEE_1_1_tpss_d4_lanl2dz_631gpol_Co3.opt
  Co  2.17141910011256     10.25236738808413      3.29211386945108
  O   -2.13050176468951     10.30694973683609      5.24668702595739
  N   3.77256490936090     10.51364694760016      2.21612215994839
  N   2.28158010462358      8.51898868757980      2.56556545435652
  N   0.49063006276770      9.64751914470868      4.18455412074504
  N   1.87092106575616     12.08061187209178      3.24323742929543
  N   1.02966855990937     12.79051287269668      3.78806623195698
  N   0.26025619713046     13.52789135474912      4.25268037299853
  N   3.14823987032920      9.73619816834584      4.86131758749483
  N   4.20170750950527      9.12904790459758      4.67141977967009
  N   5.20235671145786      8.54603327932546      4.54456393697163
  C   4.50467317966823     11.63735680265347      2.13555986587064
  H   4.10621234253033     12.49282033195504      2.67353903759088
  C   5.68987778315489     11.68298423217458      1.39150135534658
  H   6.25894037443029     12.60780702903078      1.35076205012230
  C   6.11998350885880     10.53470076766072      0.71827126310143
  H   7.03946248025276     10.54508901066814      0.13805950669382
  C   5.35450117898016      9.36539699727936      0.80298803066198
  H   5.66499031911780      8.45707290009839      0.29379573732857
  C   4.18332953629155      9.37980314916267      1.56675611325237
  C   3.28889306428484      8.23551240580031      1.78062526965272
  C   3.55437738909221      6.90077389947047      1.14825697346249
  H   2.74924534114433      6.18633915132745      1.33705351789327
  H   4.49280362397846      6.48314381622178      1.53997147256946
  H   3.66709376169714      7.01229056618982      0.06145218478189
  C   1.22594219948818      7.59053348875419      2.99190684953246
  H   1.61313303860554      6.57750590398107      3.15411796463918
  H   0.45920546377507      7.54217144058071      2.20609935795325
  C   0.67566441969777      8.15290103483413      4.30128082689678
  H   -0.26254139246340      7.65789390624401      4.57633691223850
  H   1.40743811046966      8.00400047577104      5.10079205170980
  C   -0.68561919588475     10.01040043206106      3.31130997892173
  H   -0.57721997081735      9.50721010576515      2.34279259624723
  H   -0.64483607323812     11.09109719857406      3.14990277199638
  C   -2.02597937119390      9.66230621551474      3.98398028997199
  H   -2.84568963665157     10.04352591038487      3.36647334866299
  H   -2.15195524476435      8.56980978912247      4.09215731234743
  C   -1.09379453102008      9.86499711608229      6.12574968496436
  H   -1.18154658989551      8.77957836833572      6.30822662385514
  H   -1.24714676449947     10.38898963115712      7.07409486727633
  C   0.28140382431021     10.23969532671160      5.55649894062204
  H   0.32618328867989     11.32635500968146      5.45835342731709
  H   1.10903221565660      9.90407023013515      6.18910584767263
