 54
 Variation of chain01
 C                 -1.15655736    0.82936571   -0.03605589
 C                 -0.19706182    1.74535139   -0.00852219
 H                  0.83345766    1.45737936    0.00000294
 C                 -0.57974791    3.23702935   -0.00001433
 H                 -1.61027538    3.52497975    0.00000422
 C                  0.38869388    4.18501998   -0.00746404
 C                  0.00601267    5.67671330   -0.00000833
 C                  0.97443927    6.62469774    0.00003534
 H                  2.00497969    6.33675144    0.00000196
 O                 -1.74640139   -1.67345973    0.00002595
 O                  0.71513518   -1.14322202    0.00002269
 Fe                -0.04237261   -3.70427289   -0.00000022
 C                 -0.78282362   -0.69433367    0.02240295
 Cl                 0.26888568   -5.13415073    1.57515430
 Cl                 0.26888566   -5.13415044   -1.57515457
 C                 -1.47717964    6.09114967   -0.00000227
 N                 -2.58148123    6.39969294    0.00000218
 C                  1.87193828    3.77060655   -0.00657400
 O                  2.77114720    4.65087366    0.00912927
 O                  2.22721794    2.38534732    0.02694296
 H                  3.18338610    2.30001173   -0.02377493
 C                 -2.63387431    1.21055633   -0.01251341
 H                 -2.90392507    1.79146927   -0.86375630
 H                 -3.22448513    0.30864412    0.02763760
 C                 -2.95657642    2.04236436    1.25978070
 H                 -3.18082315    3.04735533    0.94701853
 H                 -2.09975288    2.06627244    1.91148993
 C                 -4.13021336    1.42366712    2.02137634
 H                 -4.60670149    2.15145932    2.61869713
 H                 -4.79617630    0.95848500    1.35531234
 H                 -3.71630857    0.64922217    2.69453583
 C                  0.59281295    8.11292490   -0.00037334
 C                  1.60872001    9.08639692    0.00159956
 C                 -0.76641520    8.47761920   -0.00066200
 C                  1.25688417   10.45797533    0.02079699
 H                  2.63147204    8.80061141    0.00029207
 C                 -1.11822860    9.84864047   -0.02152108
 H                 -1.52538205    7.73465750   -0.00011850
 C                 -0.11493431   10.81920735    0.00238855
 H                  2.01623992   11.20066670    0.00133479
 H                 -2.14097397   10.13451544   -0.00111537
 C                 -0.48353793   12.31082143    0.00030410
 C                  0.79841431   13.15582424   -0.12098391
 H                  0.52412830   14.20282790   -0.14168822
 H                  1.41694771   12.98675975    0.73986843
 H                  1.31995330   12.90745589   -1.00293751
 C                 -1.20738051   12.66218499    1.31363453
 H                 -1.30751325   13.71410632    1.40297168
 H                 -2.19536326   12.21293979    1.29467269
 H                 -0.66713574   12.26512041    2.14043250
 C                 -1.41034291   12.60972676   -1.19249408
 H                 -1.52818953   13.66315253   -1.30139997
 H                 -0.96681312   12.20848887   -2.09020637
 H                 -2.35856887   12.14887182   -1.03528178