27
Test molecule to test the detection of conjugated chains
 C                  0.28992944    1.49566312   -0.00000181
 C                  1.53240411    2.14387507   -0.00000314
 H                  2.43534954    1.56977615   -0.00001072
 C                  1.59227337    3.54399568    0.00000686
 C                  2.95763007    4.25631668    0.00000391
 C                  4.10124856    3.52919645   -0.00000487
 O                 -0.98172868   -0.70096903   -0.00001239
 O                  1.52786819   -0.90644504   -0.00002870
 Fe                 0.06103452   -3.13831246   -0.00004375
 C                  0.22413872   -0.04293089   -0.00001229
 Cl                -0.05519608   -4.59709119    1.57506103
 Cl                -0.05521502   -4.59705805   -1.57517780
 C                 -0.89267585    2.24757172    0.00000749
 C                 -2.13515042    1.59935969    0.00000610
 C                 -0.83280662    3.64769226    0.00001785
 C                 -3.31775581    2.35126820    0.00001634
 H                 -2.18086187    0.53033659   -0.00000272
 C                 -2.01541201    4.39960080    0.00002829
 C                 -3.25788660    3.75138876    0.00002747
 H                 -4.26641274    1.85634391    0.00001529
 H                 -1.96970057    5.46862392    0.00003739
 H                 -4.16083204    4.32548764    0.00003678
 C                  0.40966798    4.29590425    0.00001718
 H                  0.45537950    5.36492737    0.00002360
 H                  5.04990544    4.02412086   -0.00000401
 H                  4.05553723    2.46017331   -0.00001317
 H                  3.00334145    5.32533983    0.00000979