72
Coordinates from ORCA-job ERUSOC-CH3OH_1_2_tpss_d4_lanl2dz_631gpol_Mn2.opt
  Mn  9.71474433006997      6.52093719716415      5.09320776407301
  N   8.58613289744905      5.03791040082069      5.83361436572489
  N   8.65216821681579      6.53892884333685      3.38107401664742
  N   7.54032010744978      3.09404484657974      6.10958955253558
  N   8.47181849613902      7.85134658475609      5.81802661360980
  N   6.80739948539454      6.57831269026736      2.14001027832407
  C   8.54464325875759      9.00253866373210      6.14217104962799
  C   8.43819203790819      3.79652010392755      5.35980797877312
  H   8.95090778640268      3.38723973558445      4.50106347803913
  N   8.61940633175684     10.20998490521695      6.58319285456652
  N   8.91644219355432     12.11603642048595      4.97143448060714
  C   8.75850082881756     11.19741885768173      5.69915664658474
  C   7.32092228240301      6.41890621270481      3.38925139207237
  H   6.71999201574750      6.26786321415920      4.27468742808790
  C   9.00424372069123      6.77611648029928      2.05963221038157
  H   10.03173917671227      6.94939040701969      1.77289940950939
  C   7.75148463394679      5.13412249299824      6.93751935460873
  H   7.67174824186765      6.06369919585297      7.48303161489781
  C   7.10210112862488      3.93601559138521      7.11987700157099
  H   6.37520808196122      3.61174292934807      7.85221245389055
  C   7.18878940337110      1.67441026808500      5.94002698470361
  H   7.37218004215898      1.42091136337769      4.88952365400539
  H   6.11228164686327      1.57779689610722      6.12292163719700
  C   5.38850792027078      6.45212137011721      1.76360437211537
  H   5.18815613570048      7.20009525527903      0.98815978597471
  H   4.79847147983085      6.72188416174439      2.64652750187333
  C   7.87219679973955      6.79785174938656      1.28021057358567
  H   7.72356050224447      6.95396698070615      0.22046194308380
  C   7.99340736157119      0.76468182143569      6.87636241839480
  H   7.80475416362974      1.01870976729011      7.92673504719414
  H   9.06902259941615      0.86082131910438      6.68083156416285
  H   7.70409678392959     -0.28150766373246      6.71755920892244
  C   5.04690443606917      5.03888141577830      1.27718689921766
  H   5.63695903505900      4.77416371088075      0.39094230517704
  H   3.98371617833402      4.98471400508620      1.01240832709345
  H   5.24794906545671      4.30002547728991      2.06332654954128
  N   10.88177905456031      7.98696296162806      4.33558078287634
  N   10.74892620916693      6.48224129644640      6.81515314084809
  N   11.44185473147922      9.97269514975860      3.50010089787950
  O   11.07765925962415      5.05779654995882      4.45782946487190
  N   11.64042508391199      5.82475989307570      8.74776551999919
  C   10.42751426999265      9.10744497653603      3.75594492226351
  H   9.39208244744970      9.32068969665162      3.53611930599129
  C   11.01612648696095      5.42969235038652      7.60309000356499
  H   10.71361720401052      4.40935888679821      7.40954821121599
  C   11.23479872855823      7.59580705241610      7.48779327133870
  H   11.12513143540554      8.59001538506742      7.07860434317771
  C   12.25527224617843      8.15378913960739      4.45054090767181
  H   12.88000504429104      7.40840494489372      4.92464651461695
  C   12.61258144834509      9.37571458343839      3.93026658183644
  H   13.56814514593463      9.87354059031524      3.83955171599132
  C   11.30287238268506     11.30375694365845      2.86601412234736
  H   10.49605470928348     11.82882200996044      3.39285036598776
  H   12.24188275306013     11.83456551538673      3.05559142348170
  C   12.13533851357040      4.94484330403757      9.82038679106125
  H   11.87262166511900      5.41290409282511     10.77617760422904
  H   11.57636703058003      4.00503827120600      9.74585593911663
  C   11.78619519123815      7.20051183221240      8.68224053814743
  H   12.25083941322441      7.76060643412688      9.48209620195392
  C   11.02657820279665     11.18470255616002      1.36389205502994
  H   11.83609062454758     10.65037721988711      0.84974010934002
  H   10.08287870203450     10.65476994402458      1.17978186913047
  H   10.94029252222025     12.18825038743819      0.92962305259024
  C   13.64581321223309      4.70242208971993      9.71764459819172
  H   14.20060249774483      5.64572328371511      9.79166085853296
  H   13.97207842441414      4.04650121557506     10.53412051225416
  H   13.89943889111283      4.22290337750376      8.76377527965322
  C   11.71739299562051      5.01202048135291      3.15298822444270
  H   12.19021552612645      5.97255100606049      2.91755033770817
  H   12.45534591506351      4.20145860102509      3.13984339506906
  H   10.91941779259008      4.80024654420133      2.43955222952269
  H   11.76403543274926      5.10864776168642      5.15653019168982
