68
Coordinates from ORCA-job ERUSOC-OH_1_3_tpss_d4_lanl2dz_631gpol_Mn2.opt
  Mn  9.67200387978626      6.26166425103497      5.23889390011964
  N   8.60238766724168      4.70425915815794      5.86649956450429
  N   8.61400316139084      6.30384183997149      3.51740472427537
  N   7.80313949048801      2.64733058215203      5.97664237887313
  N   8.33811847662647      7.53146232292949      6.07666939490176
  N   7.12477772877754      6.87476908810183      1.97515982284862
  C   8.10878641680555      8.64372550260831      5.68807287987128
  C   8.63929528051305      3.49056223628532      5.31597277947474
  H   9.25776713531635      3.21278792664404      4.47460001966864
  N   7.85747830105084      9.84783054807606      5.33213276390021
  N   7.34028011839137     10.33894155505445      2.92276048180115
  C   7.55602037268303     10.08073433663829      4.05719122598339
  C   7.40860866473288      6.84423372626516      3.30238307129217
  H   6.74302356532294      7.21287778096822      4.06660628491717
  C   9.11244841894612      5.95225411612821      2.27408996012529
  H   10.07077731708555      5.46196261617636      2.18665573389884
  C   7.71428630105015      4.64347393435930      6.92477993222993
  H   7.49886049135098      5.51975246343646      7.51882920510716
  C   7.20989305954103      3.36775007269661      7.00371912778181
  H   6.49232876287132      2.91484858767275      7.67377130635312
  C   7.62754126674519      1.21003472438447      5.70274153798607
  H   7.98198037382318      1.03675828161424      4.68072437403664
  H   6.55206458640510      0.99817914866252      5.72449261174811
  C   5.94683415065409      7.52867887172371      1.36012605279819
  H   6.02769656287327      7.35038982744185      0.28287689080625
  H   6.04252316246990      8.60586524441504      1.54467607009168
  C   8.19857588986264      6.30906406915809      1.31031548949746
  H   8.20970059460351      6.21302222986002      0.23335834452721
  C   8.38770595613722      0.33739515814804      6.70802049625168
  H   8.03312017817885      0.51533252658996      7.73075628166503
  H   9.46340742668171      0.54951816923952      6.66933705290887
  H   8.23221937221125     -0.72199740843628      6.46957448504210
  C   4.62855486111776      6.97569160164614      1.90748151719354
  H   4.55484512441988      5.89348857420520      1.74396166219797
  H   3.79295605639690      7.46500316120432      1.39254974913988
  H   4.52152904189040      7.17893046911422      2.98042337300997
  N   10.75219846968966      7.85065110027474      4.58592097133089
  N   10.66463576139174      6.22938835991671      6.98137395187938
  N   11.16113904387317      9.78445739879348      3.58019380873314
  O   10.86039281444557      5.08581671724702      4.51901734972294
  N   11.95853738467144      5.44593805123447      8.59735454960953
  C   10.36613885015132      8.69114975982049      3.61515453415326
  H   9.51903196391322      8.56146567242689      2.95882889815611
  C   11.50834211637143      5.25488574972754      7.32913282232901
  H   11.79093793802156      4.43216804568920      6.68789597064103
  C   10.56774834579217      7.08112456793117      8.06877558738608
  H   9.92236242111547      7.94680569630866      8.04424279739318
  C   11.85895842101039      8.43627767837568      5.18464690039633
  H   12.36075337781083      7.96840180005872      6.01897631732719
  C   12.12428708654547      9.63283244235726      4.56509122874312
  H   12.88645459296331     10.38057668515297      4.73516270707473
  C   11.01185902385593     10.91867196094622      2.64372018787033
  H   9.95824976112959     10.93933591929902      2.34454282474400
  H   11.21727853998539     11.83177830690002      3.21360704495643
  C   12.95969672973170      4.61982355733635      9.29610162554249
  H   12.60374265942452      4.46958543398826     10.32199743870379
  H   12.96834825980294      3.64366409267462      8.79866800972072
  C   11.37201663170815      6.60708953001787      9.07731034756193
  H   11.57175002061216      6.97525367468326     10.07417095111177
  C   11.94518699462441     10.78803287954856      1.43578878207169
  H   12.99724707513130     10.76223426965957      1.74634975698217
  H   11.72475372851268      9.87312057771441      0.87157515227184
  H   11.80313605412618     11.64785506198096      0.76981061131273
  C   14.35038350160318      5.26441978361174      9.27719578900172
  H   14.33772859232022      6.24255995540795      9.77364073610759
  H   15.06326932908851      4.61988706979088      9.80601953242352
  H   14.70187784403891      5.40000163476247      8.24678408177930
  H   11.60082745209174      5.60932927203281      4.14654818613237
