72
Coordinates from ORCA-job ERUSOC-CH3OH_1_4_tpss_d4_lanl2dz_631gpol_Mn2.opt
  Mn  9.57007689048759      6.58132390062659      5.18382284259263
  N   8.54321940393219      4.94744894534398      5.79786970311263
  N   8.50966770477410      6.60504752303811      3.46386366234197
  N   7.73422115065489      2.88940315368941      6.00822438287595
  N   8.12892211780503      7.89209218683215      6.13906860890473
  N   6.69313732399169      6.83347258292441      2.20940224073022
  C   8.38123336278707      9.05881129962973      6.26291948661860
  C   8.62454220275892      3.68918981399022      5.35522013453949
  H   9.30820312332403      3.33678140228989      4.59648329901387
  N   8.70074724784100     10.28270520860600      6.50932382587277
  N   8.93630527123429     12.00521849622743      4.70093157498356
  C   8.80359786352688     11.16767958708150      5.52683490332668
  C   7.17385885887587      6.66399540050164      3.46834898480794
  H   6.55744101146380      6.63545763248495      4.35577757830589
  C   8.89770929384204      6.72973914667789      2.13775048301382
  H   9.93996495837049      6.73629227461221      1.85302247609513
  C   7.56341118267852      4.95528434214253      6.78099906604787
  H   7.29800003572926      5.87892817308157      7.27654566250139
  C   7.05655429397979      3.68505698998564      6.91907847535699
  H   6.28575332223606      3.28069310713255      7.56090067387129
  C   7.59645329380623      1.43202408597162      5.84608275987591
  H   7.98018985595107      1.18358676602812      4.85019573478672
  H   6.52555948701713      1.19805767399334      5.85898532121097
  C   5.27079832737315      6.90406387056707      1.82598705000459
  H   5.16965363803251      7.70607794645026      1.08579537586948
  H   4.71641223916549      7.20477065815071      2.72157535117411
  C   7.78034859507443      6.86393481902244      1.34905101373008
  H   7.65695127427702      6.98277171019854      0.28136047072924
  C   8.34629627543346      0.65777401428579      6.93674450897658
  H   7.96049862269607      0.90928785681173      7.93241976757280
  H   9.41877177006087      0.88882887308232      6.90815048532443
  H   8.21954153623084     -0.42063251586627      6.78062875292782
  C   4.75840781183271      5.56833527570336      1.27578867929441
  H   5.31620581685399      5.27146825113077      0.37896583380787
  H   3.69924111426455      5.66265353515727      1.00651801763152
  H   4.85783565368394      4.77521187611043      2.02732426562320
  N   10.79936935482273      8.01368561095219      4.43100516821118
  N   10.69340904909503      6.48603683453432      6.87753142904676
  N   11.42891960267741      9.91110582096487      3.45721849392032
  O   11.29972616289917      4.86908690409556      4.40031406468968
  N   11.55142601552224      5.79661421576353      8.80765237222876
  C   10.38888649012485      9.09046482799828      3.74454637978229
  H   9.36648573762142      9.30877283366673      3.47453915140391
  C   10.96632937597081      5.41963285313157      7.64053728598470
  H   10.72349633209782      4.39476432500226      7.39536946166940
  C   11.12249445759890      7.59498655103707      7.59488988661917
  H   10.98467698511510      8.59784067017853      7.21456854901163
  C   12.17233511595259      8.16003105374691      4.57783445852991
  H   12.76321258507482      7.44118521397210      5.12861366049119
  C   12.57200669713899      9.32691580210840      3.97206774755559
  H   13.54132372289351      9.79478999732343      3.86915514775023
  C   11.33875653649839     11.19095222863013      2.71715085016018
  H   10.52232233670217     11.76312364485645      3.17614056327588
  H   12.28060788878907     11.71921620736419      2.89923077345709
  C   12.04794383550991      4.89855792147835      9.86582283871787
  H   11.71500745327546      5.30816812306408     10.82654776897121
  H   11.54864682473439      3.93356351396655      9.72349318650218
  C   11.65393479995877      7.17985781621049      8.79066888992837
  H   12.07509142956466      7.72782808838236      9.62219661155696
  C   11.11239265682735     10.95695822362997      1.22024724815324
  H   11.92911890270177     10.37109300157120      0.77867826244430
  H   10.16616684115990     10.42839055096049      1.04542341770009
  H   11.05958469403375     11.92387808439540      0.70511139814359
  C   13.57294272323555      4.74758877641736      9.82417430444662
  H   14.06775002257049      5.71658336876019      9.96286142186818
  H   13.89955402308336      4.07693616736992     10.62836480485117
  H   13.89696316579575      4.32443562908396      8.86504893702114
  C   11.95492540986245      4.93142549485566      3.11362055746953
  H   12.27454057828183      5.95601125100320      2.87862207295248
  H   12.81826431081398      4.25318055596024      3.08143944381298
  H   11.21130999631627      4.60235179197477      2.38320276460874
  H   11.93768595363051      5.16029018189231      5.08284917360937
