68
Coordinates from ORCA-job ERUSOC-OH_1_1_tpss_d4_lanl2dz_631gpol_Mn2.opt
  Mn  9.57645406896893      6.32249853050301      5.10918527549953
  N   8.33169595782067      4.87783585170889      5.77416967450844
  N   8.59149987749163      6.44636161135305      3.36431174403348
  N   7.53383478656113      2.85069952631590      6.17394929633040
  N   8.30678493983321      7.64942511678911      5.87878050235782
  N   6.90652738314690      6.64834298092058      1.94144264742204
  C   8.26230247164996      8.83257320203643      6.07178565422917
  C   8.51521348358475      3.57247195056764      5.56959184258699
  H   9.33876844231976      3.14855847513356      5.01317101607409
  N   8.18959736194020     10.06649188773679      6.39220037949551
  N   8.52567610269541     11.89845877159659      4.70790382833719
  C   8.35399125769402     11.01791191929843      5.47717088030067
  C   7.26299221502623      6.43232357708963      3.23268854489760
  H   6.55950277293424      6.29528728406360      4.04137471049124
  C   9.10991610166850      6.67302025630036      2.09823162174618
  H   10.17561907603666      6.75907718808787      1.93408437018250
  C   7.19300303356034      5.00224706647600      6.55175304849501
  H   6.84015708814272      5.97565676019699      6.86124126032762
  C   6.68873725048936      3.74896876985644      6.80651868394207
  H   5.82535874120145      3.41847012864041      7.36755063311020
  C   7.45215531752728      1.38007693082726      6.23586981628140
  H   8.00875682765938      0.99303630119344      5.37502402962847
  H   6.39954064366460      1.10369852895350      6.10480651238794
  C   5.52942641980047      6.67027680059245      1.41026863045729
  H   5.43393289700621      7.56232727613209      0.78032922101989
  H   4.86291423230831      6.79593880537280      2.27035238932264
  C   8.07320745315726      6.79460380537307      1.20515059510499
  H   8.05375344360441      6.97838315655627      0.13991427772732
  C   8.01288314216062      0.83010228250380      7.55243568356563
  H   7.45163055173451      1.21802342082356      8.41123420223642
  H   9.06744025908584      1.10866760100215      7.67071531498199
  H   7.93841948309483     -0.26433205181834      7.55712093718871
  C   5.19709118758938      5.39478624952803      0.62866348686881
  H   5.86567740893029      5.27395140738416     -0.23254221918494
  H   4.16661088194294      5.45046515565637      0.25723865683821
  H   5.29021482635453      4.50987414581552      1.27020799481205
  N   10.77551329017482      7.82645765977623      4.51480130468145
  N   10.60023828714110      6.21319699617338      6.83318220708820
  N   11.50321170945984      9.80187897467402      3.82267268746063
  O   10.71762535679020      5.06893835674252      4.44530185885487
  N   12.03523688005386      5.44584046678287      8.33432578743030
  C   10.42207624556126      8.99878526362941      3.97347572933509
  H   9.42224280014771      9.29729261927548      3.69488672482443
  C   11.49897172678907      5.26249579662765      7.09879492886660
  H   11.76929108191033      4.46770333299829      6.41838296152890
  C   10.56015471631188      7.04344246513308      7.93870904860607
  H   9.90073777092317      7.89726698699199      7.98296596795186
  C   12.14506281945141      7.87722100030053      4.70294871450498
  H   12.67678500045437      7.03838039046599      5.12727159077427
  C   12.60840722755768      9.09704828768368      4.27231755146322
  H   13.59969466160338      9.52822234250785      4.25157667134062
  C   11.49149725825099     11.16007479147784      3.23487580951243
  H   10.55653386741026     11.63708618870757      3.55148012574005
  H   12.32508659558060     11.70512498793699      3.69108605945490
  C   13.11972653635572      4.64868602724461      8.93403025565660
  H   12.87269537219354      4.49992036063877      9.99161916230833
  H   13.10232074407682      3.66811933623800      8.44517903629544
  C   11.45064125068807      6.57959132437940      8.87688083402422
  H   11.71313792141618      6.94020021632757      9.86183365723195
  C   11.62195962199699     11.11501596989282      1.70887849718198
  H   12.55483905830879     10.62470060291112      1.40256220275314
  H   10.77788079563028     10.57284285871502      1.26337727818416
  H   11.61940295566872     12.13747555029260      1.31182935051822
  C   14.48604644185992      5.32487016349730      8.77068514803715
  H   14.49846323826675      6.30716690453833      9.25852151374071
  H   15.26437514631761      4.70210788486445      9.22870151765908
  H   14.72750249479978      5.45951885593075      7.70895364527169
  H   10.54616373846113      4.91176636607599      3.49384702811348
