61
Coordinates from ORCA-job BAYZEH-oxo_1_5_tpss_d4_lanl2dz_631gpol_Fe2.opt
  Fe  0.66301206415453      3.27012887108886      1.86581650037367
  S   5.80962295299793      1.85027351718905      1.52764955942152
  S   4.58881811873215     -0.26187343616514      3.21507442682536
  S   1.87751331020447     -0.75678569235226      5.37075011421619
  S   -1.05741539237566     -0.33419406358495      5.44149371322723
  S   -1.99438329287876      4.67907737972256     -1.44449221671549
  N   2.14078684600158      3.18030235235251      0.33840299416295
  N   0.73592580713669      1.17162304063501      1.81214879058834
  N   2.13811875903046      3.12589950048580      3.41861099602795
  N   -0.70734657133254      3.26320077991631      3.52741591759729
  N   -0.80501606711403      3.12289943617076      0.58232992421628
  O   0.74120727449758      4.90634920679790      1.86818963852571
  C   3.12432237487639      1.18468679542907      1.32723167608997
  C   4.33981139700228      0.92185286656482      1.91783259482074
  C   3.05446115945243      2.18667568143506      0.23624882133057
  C   3.89599071631647      2.10198615717635     -0.88753988339325
  C   3.80215445142820      3.06819131739896     -1.89267401965127
  C   2.86369875493099      4.09876360554364     -1.76138399684125
  C   2.04649757744934      4.11560271706374     -0.63188046970374
  C   1.88910912497624      0.45720195021745      1.67487565445663
  C   1.86999972643098     -0.94617527905583      1.77109425519994
  C   0.66572747019967     -1.61435408559066      1.99820675234543
  C   -0.51417687720372     -0.86782836013764      2.09311896032668
  C   -0.43363803946901      0.51891571404463      1.98452794513714
  C   6.77817985501592      1.20089616869504      2.83671924489919
  C   6.22334534215407      0.24341104083533      3.60681098499987
  C   0.69805626536672      1.70365270744520      4.76703402645780
  C   0.54505852462487      0.39817446811572      5.17703378811046
  C   2.01512294643460      2.31662395099636      4.50695807212055
  C   3.09226681117782      2.15796659559592      5.39840700097464
  C   4.28818668406776      2.84217036518824      5.17228324908880
  C   4.37914502634378      3.70609350678033      4.07436236666605
  C   3.27554784441649      3.82497935190933      3.23092555256107
  C   -0.49785776791733      2.57660032885443      4.67565802145808
  C   -1.37256972630020      2.72098719007199      5.76816201503897
  C   -2.48161161943293      3.56282689196663      5.65603692726763
  C   -2.68492417948924      4.26353578850483      4.46100558506025
  C   -1.76474018334341      4.09631313647563      3.42642731802659
  C   0.85939723598152     -2.17492226823087      5.55141838871530
  C   -0.47448284903903     -1.98070274372946      5.58680940238809
  C   -1.31348442176744      3.80944532753867     -0.27360055522943
  H   4.59006991319742      1.26912953676221     -0.97595735787672
  H   4.44116786869891      3.00633386515396     -2.77107237440796
  H   2.75476333859321      4.87016243342401     -2.51898368940670
  H   1.29673496785495      4.88443729415435     -0.46493678201792
  H   2.78852741302650     -1.50541332614698      1.60792215942372
  H   0.64490677339669     -2.70009485157556      2.05935112788726
  H   -1.48074862368509     -1.34192632245263      2.23691972304049
  H   -1.31386590398323      1.15252982224460      2.03523135455070
  H   7.79240344655065      1.57499781265728      2.94545138248618
  H   6.72584760146867     -0.26693415772885      4.42370253181657
  H   2.96564094212337      1.54839813026490      6.29038120796397
  H   5.12013048913794      2.73290858940670      5.86439470152807
  H   5.27689607330554      4.28510219659819      3.87711382615878
  H   3.27625949792804      4.48414948407378      2.36692580013147
  H   -1.15881943077588      2.20067062350796      6.69926638755972
  H   -3.16144644467683      3.68688649315688      6.49639870209909
  H   -3.52821197149592      4.93696583267420      4.33253662200058
  H   -1.85015070344026      4.62699843741620      2.48264227430622
  H   1.35134544495282     -3.13653457729367      5.66782240976602
  H   -1.21238812591642     -2.76453909565723      5.73358995580148
