62
Coordinates from ORCA-job BAYZEH-OH_1_6_tpss_d4_lanl2dz_631gpol_Fe2.opt
  Fe  0.67795849482043      3.49172604011775      1.88247676948946
  S   5.85788761597972      1.85934532194713      1.50771458156990
  S   4.56593893954827     -0.27451102901139      3.12098523747627
  S   1.77738649457960     -0.73584039180207      5.24490702891033
  S   -1.13789270138457     -0.20674181562125      5.38485706668173
  S   -2.42549997158003      1.78556434480731     -1.07035575977125
  N   2.19602710261044      3.30411497479449      0.34286253193536
  N   0.77894796434980      1.22807929720768      1.81871399192234
  N   2.18665897880086      3.20153173002140      3.48839133636082
  N   -0.71130833656736      3.36856159353616      3.55021518693503
  N   -0.75813141192598      3.36474480733632      0.56142518207238
  O   0.87208097439745      5.33159652701095      2.00391902585113
  C   3.15435160958377      1.26381724231192      1.27204599498319
  C   4.35901422527799      0.95990773833048      1.85938205219527
  C   3.09931260889443      2.30269446801243      0.21540166138677
  C   3.94525247202982      2.23843255779335     -0.90692906071154
  C   3.86641840535053      3.23025036813860     -1.88765808984513
  C   2.93543054685819      4.26484710619728     -1.73615316950269
  C   2.11361750120508      4.26003334578327     -0.60968911600908
  C   1.91583842733404      0.51890082583247      1.58835681355599
  C   1.89904565552140     -0.88807985550319      1.57115318087493
  C   0.70166091155709     -1.57023123068057      1.79643545117307
  C   -0.46607325226833     -0.83061850424785      2.01112402539842
  C   -0.37854027689236      0.56105463158125      2.00528730371790
  C   6.79708560103021      1.14411335214672      2.80624357229192
  C   6.20974175471630      0.17859202399802      3.54098072104148
  C   0.68653088810965      1.79565564568611      4.79019056603126
  C   0.48794213468934      0.47838478867598      5.14145410058453
  C   2.02745163075547      2.35921982482839      4.54661662958540
  C   3.10121195077393      2.09974542494272      5.41982809310816
  C   4.33791918068274      2.70901764548702      5.20239915497358
  C   4.48087872788769      3.59085379906713      4.12434392046419
  C   3.37722331607040      3.80905400809598      3.30087281618445
  C   -0.49339476309150      2.69200162718932      4.70411026435750
  C   -1.36369954361629      2.84155538050320      5.79933548200170
  C   -2.48035395848298      3.67344246931189      5.68503444508811
  C   -2.69994729408082      4.35542827950793      4.48193360619864
  C   -1.78343063539419      4.18559060079513      3.44468902711784
  C   0.70915485961677     -2.11955866291603      5.40268039359645
  C   -0.61512590820217     -1.87777992967866      5.47046587430076
  C   -1.47600259280325      2.69482622882220     -0.13910990554009
  H   4.62966045787229      1.39986961746032     -1.01485867266469
  H   4.50902324460202      3.18406936757478     -2.76448197390001
  H   2.83734001685658      5.05464827288289     -2.47622380957681
  H   1.36904748653687      5.03099564275934     -0.42920128943350
  H   2.81009482900261     -1.43272705298732      1.33260736392642
  H   0.67633080472487     -2.65750973362317      1.76968963810673
  H   -1.42770561107504     -1.31137763150347      2.16595817092764
  H   -1.25616480902585      1.18280717886040      2.16070210711034
  H   7.81977972033609      1.48737595831533      2.93535213526304
  H   6.69280470921442     -0.36976376808922      4.34494601804710
  H   2.94522482598674      1.46785460487417      6.29141035113479
  H   5.16654157833940      2.52303105514360      5.88199632831520
  H   5.41771771239612      4.10362432693453      3.92630385174001
  H   3.42462766224141      4.47753360245498      2.44375498640062
  H   -1.14440019039091      2.32593158314401      6.73173684221464
  H   -3.15733498666734      3.79939686506022      6.52746624230806
  H   -3.55418344400217      5.01400046183389      4.34873673175770
  H   -1.88326031681567      4.69674366500069      2.49064072447479
  H   1.16688746578384     -3.10204870350420      5.47622122815152
  H   -1.38006388412518     -2.63794478114095      5.60224444010520
  H   1.26919440146713      5.73524686819200      2.80046059755447
