60
Coordinates from ORCA-job BAYZEH_1_5_tpss_d4_lanl2dz_631gpol_Fe2.opt
  Fe  0.61875739542727      3.11624510571454      1.84483792837134
  S   5.74818437010293      1.89474355177801      1.53990206495004
  S   4.60596448828585     -0.24125256310677      3.25623268289882
  S   1.89226394772686     -0.71769926427415      5.35656866164698
  S   -1.04863027289543     -0.32463741733608      5.39915266776763
  S   -2.23172202763273      5.59708212061438     -1.01138709938330
  N   2.16851601203494      3.12632076541732      0.28693686347750
  N   0.70370601769811      0.99650456184162      1.72355010809226
  N   2.08882852349340      3.19325968350105      3.39745635637543
  N   -0.83643365576835      3.17697525500333      3.48271393556216
  N   -0.51469428502582      4.20662621628834      0.73581691540141
  C   3.10227373310209      1.11312059661223      1.31927848433865
  C   4.31383957524655      0.91147563673052      1.93878172587710
  C   3.04584846799613      2.09431802037739      0.20176532711647
  C   3.88235155248265      1.93177711021268     -0.91666708698092
  C   3.84440955201034      2.87226653300025     -1.94931884230019
  C   2.95672828899229      3.94881295230308     -1.84396480459116
  C   2.13172035728268      4.02843853807924     -0.72194841042267
  C   1.89211602899859      0.32889280771841      1.63392543483403
  C   1.93658675664135     -1.06996231817249      1.77619852999642
  C   0.75826453472227     -1.78543675216466      1.99803401715821
  C   -0.45633932662039     -1.09200521958809      2.06051626226447
  C   -0.43405569386008      0.29448762460699      1.92034267192197
  C   6.72934303982742      1.31616368436039      2.87271114476550
  C   6.21182095025896      0.34722619512998      3.65461981405727
  C   0.68139875710540      1.73226335151779      4.74202749419516
  C   0.55047667620912      0.42294960574916      5.14565396017661
  C   1.98333529612823      2.37806435409290      4.48975414550617
  C   3.06857697048833      2.22255025276758      5.37115092839590
  C   4.25670604440748      2.91967031490432      5.14392450370470
  C   4.34027770078549      3.77684201155739      4.04006958846740
  C   3.23630570643591      3.87786973545697      3.19584956558680
  C   -0.54730412423496      2.56612853445367      4.66034593293217
  C   -1.36647647177742      2.72388508778452      5.79172040123377
  C   -2.52621673581914      3.49783643105626      5.70135177199137
  C   -2.82878215848177      4.11126782589178      4.48070429363438
  C   -1.95512447071789      3.93648090701600      3.40718171694885
  C   0.88692385488240     -2.14333426771696      5.55392894466196
  C   -0.44895256895071     -1.96199595702562      5.57572201277143
  C   -1.25074586732207      4.79869664657657     -0.01558950177142
  H   4.53628254657299      1.06421457908766     -0.97347661280758
  H   4.48296618367913      2.75671130917299     -2.82254923927848
  H   2.88729345532613      4.70741514580440     -2.61935410043023
  H   1.40091935129135      4.82319579369278     -0.60639688857339
  H   2.88396191814890     -1.59175129288834      1.65993566914908
  H   0.78548479695275     -2.86873278705416      2.09236561909878
  H   -1.40038911096672     -1.60649579603280      2.21569650990136
  H   -1.34244826732450      0.88880126581952      1.98477569189846
  H   7.72459084343755      1.73724064769911      2.98538793021767
  H   6.72924203737290     -0.12513759677897      4.48495624322631
  H   2.95516360829046      1.60154380343736      6.25688945052384
  H   5.09203827293901      2.81685065787845      5.83277024753085
  H   5.23696180592672      4.35348742869554      3.83194336889532
  H   3.25708320074603      4.50496213470075      2.30809880981139
  H   -1.07751283822839      2.25589012558863      6.73031144947525
  H   -3.16812207820846      3.63112830922815      6.56958931247634
  H   -3.71682456285355      4.72587766320795      4.35723394635639
  H   -2.12991053538584      4.40649803152863      2.44445428089478
  H   1.38803198598261     -3.09772704557453      5.68899090366658
  H   -1.17925955336554     -2.75179063594317      5.72852629633629
