77
Coordinates from ORCA-job BEHRAH-oxo_2_4_tpss_d4_lanl2dz_631gpol_Co2.opt
  Co  -0.03623892875307      1.28590555907809     -0.00694043955785
  O   0.71732698737309      1.55816035270097      1.88355648036439
  O   -1.86712971769588      1.65206133877079      0.72076113334319
  O   -0.03473772383099      3.23616793703433     -0.21646711045772
  N   -0.13332813009171      1.20690916742980      2.85973038953379
  N   -2.85955568986280      1.51274198291185     -0.16820142623374
  N   1.09252604520641      3.80924202648094     -0.67272705333660
  C   -0.86380598845747      2.17173307247622      3.48472636982297
  C   -1.72239986186879      1.83186026904352      4.51830782556364
  C   -1.86773936086300      0.49151143396543      4.92851757370739
  C   -1.10998124893600     -0.47262842395014      4.23440227443381
  C   -0.25105335342770     -0.10412131518885      3.20954018235103
  C   -2.77246654081633      0.11190360334520      6.07246574125002
  C   -3.07455572228471      2.48697466815246     -1.09596307453472
  C   -4.12576443256640      2.36644176232194     -1.99140129107076
  C   -4.97965843057677      1.24559703372725     -1.96363776824747
  C   -4.70489519611692      0.25715599918265     -0.99616055819095
  C   -3.64631598662488      0.40190569141651     -0.11030041655111
  C   -6.15111573986444      1.12506068291068     -2.90374175257928
  C   2.02990780883309      4.21728147559219      0.22471724961566
  C   3.17104826502610      4.86746587559067     -0.21851106731365
  C   3.37965105513438      5.10730366178324     -1.59264298504991
  C   2.38862580496528      4.64313649762102     -2.48005903942080
  C   1.25474509039988      3.99581968655883     -2.00935346561032
  C   4.59091618992937      5.85678530855839     -2.08342533501543
  H   -0.71410477830214      3.17318794699202      3.10027321318477
  H   -2.28638339007794      2.62504392768292      5.00342667778263
  H   -1.18144310102498     -1.52598849431554      4.49546461888407
  H   0.35414003746078     -0.78503418983702      2.62344679666095
  H   -2.36604510628611      3.30595579558008     -1.05517713229790
  H   -4.27982868222225      3.16150092881008     -2.71718413681939
  H   -5.32564401921756     -0.63277409420634     -0.92080697458147
  H   -3.37212008090250     -0.30539283701524      0.66398746538401
  H   1.78867951431705      3.98938667970598      1.25666653725788
  H   3.89979774235881      5.19832507294175      0.51795396668446
  H   2.49170778072638      4.79455958171965     -3.55208662333646
  H   0.44975793459225      3.60060638227141     -2.61764971932462
  H   -6.42186702730975      0.07726782324742     -3.07645681980998
  H   -7.03034677289099      1.62770169549899     -2.47343356560098
  H   -5.94013076869757      1.60185031402673     -3.86804374212405
  O   -0.57002130912036      1.37638741967380     -2.04369122744812
  O   1.90027373353149      1.21985123812149     -0.63024335839639
  O   -0.18042017382013     -0.33910835889853      0.05178716716767
  N   -0.22270412328318      0.28500501475670     -2.73030161354347
  N   2.62478594175837      0.29821279892822      0.02786810456742
  C   -1.05231597125002     -0.79699911854978     -2.75267727113709
  C   0.96494111973213      0.26523207717914     -3.40135438664110
  C   2.58770952843796     -1.00066503520711     -0.38191644095333
  C   3.37880629144001      0.67572266231675      1.09644482489465
  C   -0.71138391183414     -1.92427602876722     -3.48573207678022
  H   -1.96147222632671     -0.68475354503176     -2.17557506665250
  C   1.32729683301487     -0.84745264080184     -4.14730675371292
  H   1.56462526476158      1.15855039390536     -3.28371663869204
  C   3.34453008173524     -1.95840232264879      0.27709369615487
  H   1.94150673768376     -1.19419502056814     -1.22778343783128
  C   4.14866443416401     -0.25992952018312      1.77007506431480
  H   3.31645740584251      1.72506605630742      1.35053649306691
  C   0.49160225676230     -1.98034773638776     -4.21665612632894
  H   -1.39968350688149     -2.76632453630884     -3.48636989018613
  H   2.27474912752858     -0.82411279520768     -4.68121116036560
  C   4.15578884136825     -1.61283445773606      1.37554596829171
  H   3.29861394938403     -2.98583650539440     -0.07621187883880
  H   4.74712727405074      0.07499111939673      2.61401608728910
  C   0.85443909272862     -3.18023787966244     -5.05355210505425
  C   5.01117516018010     -2.63428259035558      2.07943435763979
  H   5.12798781508287     -2.39334568444731      3.14243596748604
  H   6.01716334761506     -2.65357144790173      1.63390717856821
  H   4.58980435743490     -3.64174629346547      1.98801112828474
  H   0.47891307581255     -3.05077144324547     -6.07968566797640
  H   1.94099824356081     -3.31139315811591     -5.11659871698437
  H   0.40888806830743     -4.09793131884910     -4.65289426518717
  H   -3.64355709194184      0.77502569536830      6.13001300083305
  H   -3.12015516385590     -0.92346642441315      5.98244821273661
  H   -2.23004859089997      0.19825655486953      7.02597554021186
  H   5.46563310022669      5.65971168685165     -1.45266330522720
  H   4.83306338652771      5.59496319500015     -3.11943914362770
  H   4.39904312378787      6.93983606885479     -2.05048525870182
