77
Coordinates from ORCA-job BEHRAH-oxo_2_2_tpss_d4_lanl2dz_631gpol_Co2.opt
  Co  -0.00368456676281      0.76031299581619      0.11374656584176
  O   0.46077847870592      1.04766042863826      1.94469576208947
  O   -1.89110726246633      0.72569582858662      0.59259448315349
  O   -0.15413665873597      2.75657602963523     -0.01643956181459
  N   -0.41851989649126      0.67225360014165      2.90153951302372
  N   -2.68206500624499      1.53525593401420     -0.13414108539184
  N   0.46780135518227      3.33895414381352     -1.04994380162157
  C   -0.70102573663527      1.58491233173947      3.87150971511202
  C   -1.52898635235449      1.23684834639400      4.92702884379850
  C   -2.10554241755193     -0.04834821002059      4.99859853720535
  C   -1.80252708161549     -0.94063287220289      3.95259521455684
  C   -0.95590980283028     -0.57875074969658      2.91355484188870
  C   -2.98716963081874     -0.45053870551654      6.15260209170524
  C   -2.92087108685498      2.80275680115948      0.30476304515533
  C   -3.77781329272548      3.63043813231254     -0.40483121725252
  C   -4.40584854837079      3.18180477217196     -1.58487230786044
  C   -4.11743559975128      1.86703358879078     -2.00356159273066
  C   -3.26106317162445      1.05836520390325     -1.27017891385096
  C   -5.37359519567693      4.05446792212444     -2.34100005713112
  C   1.75831544226666      3.75093706352706     -0.90372847352082
  C   2.41148286086271      4.38893105285606     -1.94847000533590
  C   1.75873940379814      4.62804294061303     -3.17383902572726
  C   0.42718591230930      4.17948216172269     -3.28079696626226
  C   -0.20038956610096      3.53993656985151     -2.22128859305456
  C   2.43833398817807      5.36312350758870     -4.30071219583748
  H   -0.22395396592095      2.54986766332875      3.74283807036336
  H   -1.72859576072891      1.98004012105046      5.69540489320848
  H   -2.22796642724770     -1.94148835211459      3.93993345528859
  H   -0.68314131428368     -1.18080223857195      2.04402402115950
  H   -2.40467725004315      3.07361436524283      1.21601851854058
  H   -3.96057208259506      4.63335896955155     -0.02641543146015
  H   -4.57527585601940      1.45769512047484     -2.90095749598760
  H   -3.00386132949169      0.03730134161655     -1.51674980939631
  H   2.18914916653029      3.54275914528979      0.06611238110789
  H   3.43861313185457      4.71158715379102     -1.79474958762871
  H   -0.13702121372423      4.33299764577650     -4.19798135378497
  H   -1.21751516689782      3.17255088330639     -2.23861643664589
  H   -5.40884519615511      3.78877933217442     -3.40359757946305
  H   -6.38788442310160      3.92507048286412     -1.93430478014351
  H   -5.11535594436760      5.11551663216130     -2.24602784465873
  O   -0.41577691043613      0.73592139874260     -1.78753048892303
  O   1.86941513347886      0.88155412051038     -0.32976132433068
  O   0.06333312771596     -0.95691786007370      0.19959627760393
  N   0.29981958194781     -0.18109486272498     -2.46586164830494
  N   2.62241285450601      0.04301776208275      0.41929816059754
  C   -0.05006397009142     -1.49439252251841     -2.38207764078928
  C   1.39176959896694      0.22591096382351     -3.16928389647665
  C   2.77527436222771     -1.24917255997267      0.01907877827654
  C   3.18693573521192      0.50774207748027      1.56566709189823
  C   0.69805211195024     -2.44583377437925     -3.06852413627057
  H   -0.92717914353379     -1.70539611930115     -1.78607052656985
  C   2.14881218132700     -0.70064754671887     -3.86730631103816
  H   1.59028091622372      1.28930515557592     -3.12843837902907
  C   3.54790175693041     -2.11415940125892      0.77995660021154
  H   2.27058349720562     -1.51221768546835     -0.89917012472931
  C   3.96797851877788     -0.33509186373958      2.34143983037996
  H   2.97280206042429      1.54293248113253      1.79573287984621
  C   1.81609145110447     -2.07303844470463     -3.83728742605714
  H   0.39186576351043     -3.48710162555413     -3.00287066546532
  H   3.00644042616323     -0.34956136209955     -4.43603759456590
  C   4.17033842177714     -1.67843350024282      1.96629987134910
  H   3.66331198534758     -3.14007073218882      0.43897032089290
  H   4.41910902557183      0.06289137718265      3.24706425610856
  C   2.60851552543706     -3.08620737630383     -4.62237031945880
  C   5.04050278240375     -2.59938016040871      2.78117040177820
  H   5.05182710238828     -2.30879737228075      3.83767815638334
  H   6.07736741266200     -2.55665497092423      2.41486323691841
  H   4.70536510245835     -3.63986641152687      2.70170996503600
  H   2.26473191897534     -3.10215077394168     -5.66744623365157
  H   3.67603260223283     -2.83523486881318     -4.63460839915878
  H   2.48436671420450     -4.09632256273197     -4.21697353985524
  H   -3.55861162413141      0.40294880239656      6.53576359129157
  H   -3.68531408982269     -1.24454908762058      5.86491297465884
  H   -2.37144671960956     -0.83294600630996      6.98060974224901
  H   3.52222648356094      5.20064698752480     -4.28880214355022
  H   2.04347940089339      5.05612606383132     -5.27605505571106
  H   2.26640596654084      6.44527517761809     -4.20059211818216
