82
Coordinates from ORCA-job BEHRAH-CH3OH_2_2_tpss_d4_lanl2dz_631gpol_Co2.opt
  Co  -0.03527123303738      0.50462182383948      0.23848232264438
  O   0.32384818106141      0.12974192606592      2.12352992238205
  O   -1.98117432195724      0.29216667017572      0.65141573561767
  O   -0.20013361451248      2.62385796509196      0.35444983622669
  N   -0.50781721736718      0.61554587324072      3.06261578240295
  N   -2.81366680276584      1.02411853163991     -0.11493199368764
  N   0.40351895436205      3.29633356838258     -0.62003616950575
  C   -0.72684165534087      1.95705004093383      3.17043399124756
  C   -1.55780092239145      2.44267229911596      4.17070084936761
  C   -2.18022687217845      1.57786851802566      5.09233756530590
  C   -1.92405525727511      0.20155821351510      4.93623148843167
  C   -1.09751744828059     -0.26051896288714      3.92326587620494
  C   -3.05508394994721      2.09595804803444      6.20482360742300
  C   -3.15631507607991      2.27589431447427      0.29626104349821
  C   -4.02806093012228      3.04165682440701     -0.46441686350135
  C   -4.57101123214258      2.54589683815140     -1.66685195243256
  C   -4.17823953684523      1.24974967374128     -2.05387511162367
  C   -3.30395972976127      0.50662018545127     -1.27434142277465
  C   -5.55429216140685      3.34817877082501     -2.48010809479627
  C   1.72230721452535      3.63455814263495     -0.50289544867992
  C   2.35827284531478      4.34577007015889     -1.51085736730413
  C   1.66742872185060      4.73965760945544     -2.67408917648646
  C   0.31470327187145      4.35514909951213     -2.76152803700505
  C   -0.29712580384865      3.63912354428104     -1.74244636860775
  C   2.33188456273873      5.55705701900456     -3.75326087242982
  H   -0.23335392996427      2.55879466728766      2.41223486700219
  H   -1.70931736072456      3.51822800386606      4.23394824512631
  H   -2.37434147680524     -0.52721311282325      5.60623330787006
  H   -0.86093203962588     -1.30303978399521      3.74751037833337
  H   -2.70188854009410      2.58793436943894      1.22684288258112
  H   -4.29185653712272      4.03346009942713     -0.10433302149376
  H   -4.55953567069972      0.80341949459535     -2.96926178717187
  H   -2.96551331753377     -0.49373729219032     -1.50945076334566
  H   2.19360837685069      3.29676765347903      0.41064319662354
  H   3.40640417804639      4.60313390438459     -1.37473640483874
  H   -0.27980720546085      4.61756183636552     -3.63394736697359
  H   -1.32782003412938      3.31009517685216     -1.74928973574307
  H   -5.47151133920626      3.11852293968451     -3.54880081760180
  H   -6.58229864902913      3.10756998777216     -2.17039051455901
  H   -5.41013106453184      4.42502882283283     -2.33582432944442
  O   -0.43961575872582      0.65013644110674     -1.68961895995150
  O   1.88668091933020      0.60491381833448     -0.15680857883125
  O   -0.47620503103865     -1.78555360845248     -0.01746312863311
  N   0.44084156208593      0.06165863068043     -2.51630170098768
  N   2.66434643881123     -0.32294162152021      0.42962044059887
  C   0.26249657696999     -1.23941406337354     -2.87987936245646
  C   1.49717791598600      0.77970962459868     -2.99084374311872
  C   3.02421931534474     -1.43271180448350     -0.27602147593444
  C   3.12026376561267     -0.12338044806436      1.69825953977689
  C   1.14713282924798     -1.84421494363537     -3.76291847125724
  H   -0.57109776897407     -1.73513852850133     -2.39973703457846
  C   2.39390550791565      0.20074451775823     -3.87690887042250
  H   1.56142693272255      1.79708244097244     -2.63015708286009
  C   3.86647861794372     -2.37719308298708      0.28982737295456
  H   2.60645594591861     -1.49463075186980     -1.27343571712531
  C   3.96074840763906     -1.05610136713986      2.28982232843198
  H   2.76697519278877      0.78399595146230      2.16906625571295
  C   2.24054794869081     -1.13450292946029     -4.29873802664119
  H   0.97047992254413     -2.88168558156200     -4.03790735215990
  H   3.22149227115977      0.80533063217218     -4.24087736551893
  C   4.36401270780535     -2.21456081534072      1.59880963244084
  H   4.13930285322317     -3.24799157814976     -0.30215503952190
  H   4.30801407304824     -0.86656018569436      3.30280365943206
  C   3.18284906996362     -1.76340840354783     -5.29297292206364
  C   5.30730775392459     -3.21592349049953      2.21440251708901
  H   5.23507314651246     -3.21412823672528      3.30782505688275
  H   6.34613245739864     -2.96729048136827      1.95020147871016
  H   5.10854160470713     -4.22995772998118      1.84830914686366
  H   2.82138359522268     -1.58698146268940     -6.31710745685302
  H   4.18815619576321     -1.33240245203980     -5.22036009413946
  H   3.25027329411799     -2.84826179133312     -5.15170504808204
  H   -3.47375540876414      3.07886564541356      5.96140106387724
  H   -3.87807721964392      1.40374521785152      6.41858034932834
  H   -2.46775878228294      2.20370735209748      7.12897784437400
  H   3.41018710788281      5.36399253879974     -3.79586943389479
  H   1.89652815771947      5.35078169303634     -4.73816012116787
  H   2.19772602015861      6.63040632637300     -3.55235724236135
  C   -0.03786757782661     -2.82282948380350      0.89014569680488
  H   0.80979259620132     -3.32009891399715      0.41098587293298
  H   0.28546787162736     -2.38772976983072      1.84364341439346
  H   -0.83749663530600     -3.55629965229985      1.05312345099028
  H   -1.34982976985954     -1.43763102655567      0.28983182868377
