82
Coordinates from ORCA-job BEHRAH-CH3OH_2_4_tpss_d4_lanl2dz_631gpol_Co2.opt
  Co  0.06597624319288      0.40179468787432      0.36118267343743
  O   0.28792266015564      0.18263599265234      2.38759541283933
  O   -1.98201734335070      0.05385586623523      0.66341829491276
  O   -0.21518017717864      2.42675088311971      0.47799744106231
  N   -0.61987970263270      0.81996554371760      3.14026175758025
  N   -2.82873552384975      0.84787613870591     -0.00223522876455
  N   0.33336358408161      3.13763181747854     -0.51060155771176
  C   -0.43339067867210      2.13095666507924      3.46237133157755
  C   -1.35833913823608      2.79307139314110      4.25832367258516
  C   -2.49934730631488      2.13151071672941      4.75258209586736
  C   -2.65494100889210      0.78037801474691      4.38451260921796
  C   -1.71750642509885      0.14442901507287      3.58428270368446
  C   -3.48768500383787      2.82232340764583      5.65733718621519
  C   -3.19578019269853      2.04023921221958      0.54853578886572
  C   -4.08314809437536      2.87216587650325     -0.11923437961168
  C   -4.61904920650100      2.51138744767134     -1.37161121142256
  C   -4.19838958007206      1.27824983759395     -1.90639755039034
  C   -3.31122603665031      0.46410257205068     -1.21729771464807
  C   -5.61779883734645      3.38518528943195     -2.08716198660359
  C   1.65128599384414      3.48295053471846     -0.44632070564624
  C   2.22278215445278      4.25192771129784     -1.45102128891704
  C   1.46264115119569      4.69182122381976     -2.55259966609821
  C   0.11271802618901      4.28862339063864     -2.58877997286985
  C   -0.43281757381424      3.51525367603069     -1.57413431074848
  C   2.05546937465072      5.57101350890870     -3.62443576606586
  H   0.45594585851041      2.57984807982435      3.04005533550117
  H   -1.17344668637922      3.83701555244336      4.50110274527815
  H   -3.51288459046456      0.20669903065761      4.72752541244074
  H   -1.77748385221864     -0.88778795611776      3.26533885657224
  H   -2.74275473030453      2.25925594520929      1.50643490944820
  H   -4.36173030537277      3.81189321648166      0.35227638194750
  H   -4.56857182937730      0.93574088174431     -2.86995013208704
  H   -2.94458829463229     -0.48923419382265     -1.57437963301936
  H   2.17789105495978      3.09551663185684      0.41662026311074
  H   3.27434110534946      4.51511218384892     -1.36164427070100
  H   -0.53015269986506      4.57978723880976     -3.41644093103886
  H   -1.45715029503138      3.16712470143431     -1.54209055616673
  H   -5.55712575293090      3.25565224622870     -3.17393176684922
  H   -6.64006272155709      3.11841186405793     -1.78014076785515
  H   -5.46840084426940      4.44437962937545     -1.84735984736729
  O   -0.32920107065864      0.49029173521777     -1.66355257699608
  O   2.05475399079537      0.46937590586758     -0.06621405909982
  O   -0.18274596995653     -1.82842857294100      0.17288360529602
  N   0.55593068504190     -0.04774749242977     -2.50428374519327
  N   2.85777808665069     -0.49950396914783      0.39415028942834
  C   0.48314352448961     -1.37250034861915     -2.82053983668239
  C   1.52495717324052      0.73992061876943     -3.05367616088432
  C   3.48617624512765     -1.31548860422262     -0.50087225336618
  C   3.06639733091551     -0.64695260954362      1.73457724087389
  C   1.37760973198493     -1.92771819370755     -3.72609467122770
  H   -0.28607082293785     -1.92247616122804     -2.29422112019031
  C   2.42714241442112      0.21192149845796     -3.96531497340580
  H   1.51503556625833      1.77033732734410     -2.72400098066140
  C   4.34707685092273     -2.30875926615892     -0.05893972701861
  H   3.25747487935359     -1.11138878699203     -1.53974002380661
  C   3.92012422062763     -1.63744362103347      2.20079444655335
  H   2.48587010814223      0.02339054304270      2.35872703698310
  C   2.37547088782207     -1.14607045413083     -4.33950020080088
  H   1.28208171161574     -2.98632335695275     -3.95739727322097
  H   3.17849899385007      0.87496207354916     -4.38866303178190
  C   4.59475411099029     -2.49920809225790      1.31561397442464
  H   4.83121039177367     -2.93907116150061     -0.80160223415783
  H   4.05744606875253     -1.73005626665251      3.27575078755842
  C   3.32166010621682     -1.72323678114509     -5.36196315781967
  C   5.55193404792763     -3.55477071068198      1.80723120340882
  H   5.34303096914468     -3.83203322456133      2.84638025151411
  H   6.58477715436738     -3.17814760223145      1.76383364429442
  H   5.50548814079170     -4.45653887453443      1.18495187445999
  H   2.91516609543557     -1.58288150839881     -6.37457606016397
  H   4.29875162347634     -1.22676499351963     -5.32952330895268
  H   3.46619614581712     -2.79936258835784     -5.21239507211931
  H   -3.49281891585610      3.90596847872491      5.49358261540405
  H   -4.50298616090087      2.43576987011070      5.50975513785172
  H   -3.22005374077737      2.64805877335256      6.71017195491205
  H   3.13638619441693      5.41555823086889     -3.71858940098729
  H   1.58482141822570      5.38959370260484     -4.59789026790460
  H   1.89558296537295      6.63034573772479     -3.37406047750625
  C   0.27776679909160     -2.78771515156189      1.16150510302922
  H   1.29617326756861     -3.06041197596161      0.87379037505155
  H   0.28182202470500     -2.33595701208605      2.16003206288103
  H   -0.35633921039214     -3.68182860742829      1.13923488771448
  H   -1.14323680851215     -1.64986398276451      0.32427849474741
