78
Coordinates from ORCA-job BEHRAH-OH_2_1_tpss_d4_lanl2dz_631gpol_Co2.opt
  Co  0.07185761882917      0.25255098964445      0.14665361440675
  O   0.44858577220216     -0.03117035873104      2.03058159420263
  O   -1.81019899572827     -0.07114575217111      0.53786732111560
  O   -0.23988749561440      2.19866569720328      0.44316944210479
  N   -0.44873838649623      0.51472277158838      2.87662158774024
  N   -2.67254329910129      0.73298786742286     -0.10686876201197
  N   0.32370839372029      2.98957794116654     -0.48671238509994
  C   -0.27724731640836      1.79273497804706      3.31062654833109
  C   -1.17932547119987      2.34991852068659      4.20688779795187
  C   -2.27832236622024      1.60771954962692      4.68294058507117
  C   -2.41569009781209      0.29043387299290      4.20002768192253
  C   -1.50089830068764     -0.23835269943888      3.30213922472781
  C   -3.24363846401180      2.18083573425019      5.68817243957661
  C   -3.07531585454465      1.89568759748785      0.47889420575686
  C   -3.99340170154506      2.71438808573064     -0.16299263917181
  C   -4.51954859974931      2.36583454162369     -1.42372693175908
  C   -4.06867733894600      1.15701709877228     -1.98993913232842
  C   -3.15403792963805      0.35482553054344     -1.32280038828400
  C   -5.54634613532051      3.22563529113676     -2.11477775182538
  C   1.59545411982156      3.44139427850979     -0.30525175425722
  C   2.18460758345338      4.27045697942636     -1.24936470633491
  C   1.48476259238736      4.66105200767055     -2.40793258851948
  C   0.17499081816040      4.16343139751755     -2.55571272253299
  C   -0.38709496458629      3.33269514022879     -1.59742378443409
  C   2.09546141214411      5.59361827443166     -3.42240073424786
  H   0.58076528082667      2.30274531638669      2.89565677976943
  H   -1.01184576913266      3.37066912879951      4.54252541746992
  H   -3.24012383739523     -0.33833913090704      4.52782137220137
  H   -1.54182105282232     -1.23981340169888      2.89391170846889
  H   -2.63037044956587      2.10148528028632      1.44308347487359
  H   -4.30428082320505      3.63139888369863      0.33216027078530
  H   -4.44096513531508      0.82411588879634     -2.95593934457735
  H   -2.77752794422360     -0.59176917310965     -1.68469996390082
  H   2.07481156032089      3.09462998442618      0.59922430633891
  H   3.19930099768545      4.61808337154127     -1.06985389821982
  H   -0.42188385177784      4.42476649550994     -3.42648649240834
  H   -1.38462757444594      2.91836282341530     -1.65070032518388
  H   -5.49797418201140      3.11120392193447     -3.20367366509021
  H   -6.55731155183103      2.92995929677721     -1.79663581850762
  H   -5.41901412257401      4.28455808985974     -1.86164647152310
  O   -0.29950717836596      0.53673178795212     -1.73229999869132
  O   1.95036569997479      0.61829226206717     -0.17215746802720
  O   0.35628767314936     -1.53677045625834     -0.15973224053378
  N   0.49031203231263     -0.19855384147663     -2.54207840419228
  N   2.76376193859483     -0.29472916122703      0.40653300991852
  C   0.16057905027692     -1.49238459503502     -2.80735520072438
  C   1.61257876352576      0.37111251943786     -3.06156479774632
  C   2.99882577311118     -1.47571514286410     -0.22757170821882
  C   3.29809530737562     -0.02693324338428      1.62850107516180
  C   0.96756981397893     -2.24876782226229     -3.64774513593920
  H   -0.72325525029288     -1.85360396746781     -2.30251956642566
  C   2.43302886186083     -0.36119221767543     -3.90583285413006
  H   1.78568387765444      1.39625401203737     -2.76175985769228
  C   3.82607962213101     -2.42028328674883      0.36665157829105
  H   2.53509943644505     -1.58423946042893     -1.19560844447214
  C   4.12543146927448     -0.95135934394750      2.24415166428000
  H   3.01841973911309      0.92998634730600      2.04769823653639
  C   2.12750451172958     -1.70042567445640     -4.22742515051889
  H   0.68015362916118     -3.27817578368413     -3.84806657009380
  H   3.31792282317662      0.12002872130614     -4.31543964419739
  C   4.41052995855138     -2.18603202773446      1.62404857319583
  H   4.00830029547821     -3.35188964749459     -0.16356629270025
  H   4.54617838172510     -0.70692348774651      3.21643308541152
  C   2.98847095279920     -2.49952002108308     -5.17154417851542
  C   5.32674735236626     -3.19288330780540      2.27016766328358
  H   5.21601644917652     -3.18845740275699      3.36099918759239
  H   6.37552431707196     -2.94736287333985      2.04542715170346
  H   5.13461474306868     -4.20560604682748      1.89904534041612
  H   2.61964795972086     -2.38596211822642     -6.20197498369331
  H   4.02918668629133     -2.15625798928211     -5.15434682958760
  H   2.96156085676194     -3.56827198465820     -4.92965295361085
  H   -3.24202641204018      3.27633282285703      5.66883289066153
  H   -4.26452002393294      1.82241259665566      5.51016127489485
  H   -2.95847645673001      1.86521104508421      6.70287106170766
  H   3.18561367739520      5.48597282031184     -3.46007523057511
  H   1.68625904742855      5.41994710775882     -4.42424997026177
  H   1.87682881116403      6.63760647223444     -3.15250746238820
  H   0.06363867187503     -1.98954972222062      0.65875803728432
