78
Coordinates from ORCA-job BEHRAH-OH_2_3_tpss_d4_lanl2dz_631gpol_Co2.opt
  Co  -0.01140863471841      0.16524718303858      0.41569634615052
  O   0.17201739606696      0.06433737185205      2.50849608391228
  O   -1.96553041245882     -0.11846052043355      0.79506657108814
  O   -0.33343594943818      2.05752773219607      0.52657129142242
  N   -0.68997969687273      0.78670315192416      3.22811686716764
  N   -2.80072534330871      0.61076512089589      0.04510117830679
  N   0.28147317840096      2.83408352407497     -0.39184923644490
  C   -0.40691025381036      2.08642810667667      3.52633943344445
  C   -1.28756772491035      2.83862678141515      4.29157871921967
  C   -2.48457777528089      2.28025919283537      4.77978859247223
  C   -2.73931331191592      0.93526806586581      4.44190446323337
  C   -1.84373129624426      0.20807805539735      3.67297869664119
  C   -3.42956535222231      3.06632884880338      5.65228764651146
  C   -3.24754678581887      1.81051230136035      0.51600373874511
  C   -4.14277089197307      2.56122954402737     -0.23236492646774
  C   -4.60256100375207      2.10672018385803     -1.48473171081390
  C   -4.10319976698139      0.86720986824224     -1.93342103221922
  C   -3.21153887876833      0.13419952619687     -1.16438176478421
  C   -5.60887333899020      2.88931447872601     -2.28879818547557
  C   1.55818792588619      3.24967014052229     -0.17162487165167
  C   2.17576986363904      4.09161713292105     -1.08577776255098
  C   1.49710592391913      4.53081695780952     -2.23977962715113
  C   0.18124246828020      4.05856277697178     -2.42655035793470
  C   -0.40936543790137      3.20876460426754     -1.50280118544678
  C   2.13617006120477      5.48895283007061     -3.21141952392529
  H   0.53369914355897      2.44698294312270      3.13161551726000
  H   -1.02343372910109      3.86902866677698      4.51849916058390
  H   -3.64267189504126      0.43777302364133      4.78750774221355
  H   -1.97667271935154     -0.82467821100329      3.37800326320114
  H   -2.85466065453016      2.09573515452538      1.48318004491273
  H   -4.48944945014900      3.50820061617287      0.17519972179146
  H   -4.41846146026779      0.45578715951950     -2.88947676520995
  H   -2.78896267972145     -0.82274152430717     -1.44002077540472
  H   2.01446763548871      2.86704516796555      0.73154324804309
  H   3.19376760344343      4.41556981073126     -0.88302488286151
  H   -0.39619392658549      4.35758426111883     -3.29819940802648
  H   -1.41025785396430      2.80527709498587     -1.58052724872119
  H   -5.47505273614482      2.72796457988594     -3.36477756127145
  H   -6.62816046426817      2.56403860835041     -2.03231206969292
  H   -5.54365573756151      3.96311253101729     -2.07901919154689
  O   -0.32396765289578      0.34242223237035     -1.65693111774559
  O   1.91875434027603      0.48942905329775      0.02856591025908
  O   0.27932425548145     -1.59751336620623      0.36654359250059
  N   0.55226181230240     -0.28516534052886     -2.44085428257186
  N   2.79015259471586     -0.48232794931786      0.36005281677774
  C   0.56621606402353     -1.64900306511152     -2.50260963445065
  C   1.42129851762035      0.45161780232305     -3.19291675528561
  C   3.61176964158837     -0.96525064380238     -0.61067039876565
  C   2.84215898592587     -0.96499983277463      1.63295992177991
  C   1.45616058376650     -2.29833303221030     -3.34709883374701
  H   -0.11963132976226     -2.13741160191820     -1.82249287252913
  C   2.30910330130259     -0.17391349616782     -4.05607521530750
  H   1.33906804937757      1.52307810698437     -3.05952619762859
  C   4.54100325438165     -1.94945658985828     -0.31170401357423
  H   3.47240419147294     -0.51974631261989     -1.58827096079150
  C   3.75874913163547     -1.95507392827926      1.95509715086079
  H   2.12776738772447     -0.52412989636288      2.32146560442075
  C   2.34966373614546     -1.57931096469744     -4.16351515332910
  H   1.43845505061813     -3.38561346593272     -3.36878426802419
  H   2.97382330601610      0.44750984811725     -4.65245896730638
  C   4.64191629652931     -2.47736864436695      0.99069241176823
  H   5.18814949746037     -2.30891140007826     -1.10833663051287
  H   3.77650908391111     -2.32252383083964      2.97852984858369
  C   3.28302905911319     -2.27332652160909     -5.12278100639588
  C   5.65924324158666     -3.53224471466297      1.34063527261962
  H   5.28304440870820     -4.20567901567482      2.11940608840294
  H   6.57477292086876     -3.05990631827646      1.72738248926033
  H   5.93855130970149     -4.12699408477575      0.46367525547629
  H   2.80586701243705     -2.37254274223223     -6.10912962667627
  H   4.21008306726238     -1.70491666726350     -5.26340823179792
  H   3.53450405361043     -3.28257436753553     -4.77698158973239
  H   -3.30759794526543      4.14559528785051      5.50687452764040
  H   -4.47401491809583      2.79708509412267      5.45402509037781
  H   -3.23154934825515      2.84885747081751      6.71241251653586
  H   3.22181338126789      5.34535878118737     -3.26005432527928
  H   1.71597469556016      5.38168731634987     -4.21781907262280
  H   1.95646255915605      6.52484388767359     -2.88657198711221
  H   -0.27427963510894     -1.97707993000990      1.08468240520274
