77
Coordinates from ORCA-job BEHRAH-oxo_2_6_tpss_d4_lanl2dz_631gpol_Co2.opt
  Co  0.04045608261794      0.01017168246367      0.45337925252404
  O   0.17173339916252      0.06918645706024      2.50442208862081
  O   -1.99283844442295     -0.11951190247872      0.70183409060269
  O   -0.25419847571737      2.10023343432306      0.52291847247248
  N   -0.77124712118564      0.73452687319615      3.18007024973554
  N   -2.78601866961087      0.71135465114669      0.01998301237389
  N   0.32845617329013      2.88041384371211     -0.38447781631157
  C   -0.60389694286708      2.05357660219971      3.47609297532534
  C   -1.57475472077627      2.72730567535463      4.20493347253111
  C   -2.73966918189559      2.06865692314994      4.64682928580703
  C   -2.87168350794436      0.70765127869609      4.30251644104495
  C   -1.88779823934722      0.05594613425690      3.57520118920545
  C   -3.78076960570893      2.77287712477178      5.47815010223417
  C   -3.11147216467532      1.93068133434557      0.53728685992408
  C   -3.97019324615533      2.77091548753625     -0.15669178197384
  C   -4.51368817613349      2.39206648985702     -1.40068209810008
  C   -4.13686215677988      1.12919643455937     -1.89950039155508
  C   -3.28283932549678      0.30408201199256     -1.18289661890579
  C   -5.48056143055123      3.27783945154472     -2.14378116830038
  C   1.58371678182110      3.36602491166587     -0.15572084421968
  C   2.18812584174912      4.20958797911809     -1.07592360720279
  C   1.52812501949973      4.58712650462903     -2.26232352655549
  C   0.24125602391630      4.05138156782815     -2.46381897679713
  C   -0.34075541920786      3.20662651664695     -1.52839840282064
  C   2.15455543897077      5.54220559330031     -3.24657799621478
  H   0.31106615692797      2.49180393081756      3.10098704803129
  H   -1.40823771549755      3.77608038147067      4.43964343298171
  H   -3.74531902362511      0.13859490293271      4.61160455763276
  H   -1.91368481940801     -0.98535719859651      3.27897354982170
  H   -2.65623594056233      2.16256860542700      1.49036309829746
  H   -4.22089274373595      3.73188539340268      0.28666860697885
  H   -4.52187726558008      0.77077879762907     -2.85133634286689
  H   -2.96211677467568     -0.68164544420298     -1.49348267287146
  H   2.03685057810233      3.02648063585178      0.76655122974619
  H   3.18599467689041      4.58129116785370     -0.85417418217434
  H   -0.32748251157848      4.29790368498631     -3.35786423024849
  H   -1.32162969190808      2.76102716633016     -1.62677746471516
  H   -5.41010766044550      3.12768728211679     -3.22730738775904
  H   -6.51261592872840      3.04004047505756     -1.84544402798798
  H   -5.30883832502995      4.33691196289807     -1.91943320996108
  O   -0.34131561376968      0.24628595341758     -1.55442769216248
  O   1.98875115885440      0.49308474199205      0.08428232525809
  O   0.39168565530854     -1.68779982177604      0.42157195152213
  N   0.45651363299522     -0.44758543477787     -2.37771512185930
  N   2.92163934463532     -0.42516581210165      0.40239570176676
  C   0.36752145477203     -1.80741005144275     -2.44343799720881
  C   1.34602562814276      0.23674154326183     -3.15064282247215
  C   3.81336938130930     -0.80495964776344     -0.55315074590368
  C   2.97141924066444     -0.94425617075336      1.66258491202294
  C   1.17967397801507     -2.51190345723424     -3.31971835068903
  H   -0.34601098677448     -2.25519319078514     -1.76223621754277
  C   2.16078465379882     -0.44514847625776     -4.04381758039552
  H   1.33956794243053      1.31048498545531     -3.00722240746864
  C   4.79854591224186     -1.73395319561036     -0.25530098541292
  H   3.67523640103332     -0.33331284145524     -1.51859177318090
  C   3.94491416664358     -1.87809987501388      1.98245317120408
  H   2.20981458631175     -0.57908369706379      2.34428425994394
  C   2.09858025765105     -1.84834414920867     -4.15725441752900
  H   1.08322244304452     -3.59472031045448     -3.34874721268047
  H   2.84743687187720      0.13107401992988     -4.66012094283161
  C   4.89355300072737     -2.30200011106765      1.03079774015769
  H   5.49725945145778     -2.01612396328809     -1.03933516243112
  H   3.95627685277230     -2.27938833241639      2.99301907759512
  C   2.95012289747484     -2.60356398777755     -5.14489747181078
  C   5.97120855694895     -3.29445513156776      1.38081792014342
  H   5.60819958604382     -4.03800058738876      2.09996444890383
  H   6.82357832103717     -2.77586068816734      1.84513307711869
  H   6.34340972964366     -3.81416426344732      0.49099936538027
  H   2.36559273478075     -2.82977654271306     -6.04910056163475
  H   3.82502211001820     -2.02019901310891     -5.45256774009652
  H   3.28841051028897     -3.56043778634249     -4.72923927496001
  H   -3.72462949356521      3.86042436546975      5.35788157236343
  H   -4.79209555257330      2.43722964378426      5.21856577555719
  H   -3.62529877136533      2.54667734882143      6.54355018344358
  H   3.24335417572630      5.41884232606392     -3.28618900211258
  H   1.74590261750441      5.40628518350916     -4.25436784555337
  H   1.95370622019674      6.58100162242791     -2.94491642479453
