53
Coordinates from ORCA-job OBONOK-oxo_1_6_tpss_d4_lanl2dz_631gpol_Co2.opt
  Co  4.83846787839852      6.91176417596377      4.13301384935698
  O   3.46526246460915      6.93791653869513      3.08083567765463
  N   3.93821609608521      8.52551104217001      5.31213770081468
  N   5.62767236115914     12.46334807607647      7.48376297302589
  C   4.66848096215972      9.52668489824299      5.83148421768659
  H   5.74192350246886      9.48265832945374      5.67445785386372
  C   4.08544185479345     10.58646633190957      6.54813430067134
  C   2.68718063014174     10.59194746849478      6.73010170795669
  H   2.21216245775114     11.39868807992241      7.28232060587451
  C   1.93915623200128      9.54797646959335      6.18203633530105
  H   0.85841992008091      9.51786168682731      6.29243796672912
  C   2.59441444284320      8.53694636851985      5.47409189901702
  H   2.05761252036611      7.71598584051026      5.00677424762240
  C   4.92316966268082     11.62342016059398      7.06831507450835
  S   7.85893475489305      7.62936876343433      7.84944288446590
  N   6.29345808908883      6.88862166159636      5.61876098143487
  N   5.94736049990367      8.43048308982710      3.05642348531526
  N   5.97776852717091      5.46290901723112      3.00410015395986
  N   3.91166256362939      5.27521531189768      5.25857793223677
  N   4.34023812671613     12.05622280837621      0.33245380805163
  N   6.19968607511035      4.57630065270026     -1.72099280569126
  N   3.20819201715991      4.36929384482740      9.92708890190557
  C   6.96211930389699      7.19692974887414      6.56463816720572
  C   5.22939824886906      9.31852999918467      2.34288836721722
  C   5.83136482461460      5.43385244704895      1.66645498813099
  C   3.88375151388763      5.25979058813287      6.60197733203884
  H   4.15290686835272      9.16915679632049      2.33004414576745
  H   5.13052830179017      6.14523809747960      1.23808408382145
  H   4.41701417895009      6.05590428503563      7.11220969193401
  C   5.83657715649594     10.38004796461299      1.64740715960762
  C   6.53998103325223      4.52572930696231      0.85959831004441
  C   3.19962218658388      4.26543272526724      7.32579259505985
  C   7.23982228765717     10.50654766607896      1.69361857643979
  C   7.42084118731922      3.61339474731712      1.47745039651093
  C   2.52886176745463      3.25059365033791      6.61444346044009
  H   7.73130504695230     11.31973111767140      1.16569082414964
  H   7.97742788677226      2.90103892292644      0.87379372533600
  H   1.99566664202357      2.46977619507747      7.15069299778534
  C   7.97255404115130      9.57024157094810      2.42756014683930
  C   7.55346178586175      3.64790957874534      2.86695299714201
  C   2.56252073921411      3.28070659072392      5.21815709011812
  H   9.05594991552964      9.63232304775716      2.48751532409729
  H   8.21907044491778      2.96003501306386      3.38192614623446
  H   2.05171468587021      2.52234706347164      4.63061387991144
  C   7.29397287678240      8.54904116362600      3.09592590174198
  C   6.81860477675136      4.58559515963168      3.59743960503297
  C   3.25491831246559      4.30935161551733      4.57534579880330
  H   7.81751437410294      7.80271372314419      3.68742383044510
  H   6.88849247136625      4.66027277726482      4.67937163956411
  H   3.28871293643494      4.39192861191021      3.49265762089008
  C   5.02044212740397     11.30322843444401      0.91935056876842
  C   6.35427840773909      4.54678948913705     -0.55927842954058
  C   3.20112203032330      4.31273128542066      8.75609330669995
