54
Coordinates from ORCA-job OBONOK-OH_1_5_tpss_d4_lanl2dz_631gpol_Co2.opt
  Co  4.92350816218497      7.28654102016499      4.18599056911545
  O   3.52805057154437      7.26980534640124      2.98302894623026
  N   3.86795916018499      8.86799050972417      5.33073800086796
  N   2.47342148332477      9.07300234242101      9.92674342100393
  C   3.57494169306068      8.65164497867105      6.62456942246104
  H   3.82049599206234      7.67197277921102      7.02381876740937
  C   2.98833436878602      9.63783768558352      7.43832817374145
  C   2.70001859237362     10.89708991857699      6.87479483784493
  H   2.24921177331021     11.67696440871271      7.48302569085118
  C   3.00795175115070     11.11184891950048      5.52957195902148
  H   2.80318603278237     12.06844201931865      5.05594886023882
  C   3.58928712626716     10.07655173007601      4.79271782928747
  H   3.85418342513900     10.20143001205539      3.74513283309585
  C   2.70264990534603      9.33820846574098      8.80810374032595
  S   7.24580855362288      8.23483984643026      8.06226262112386
  N   6.29762537838772      7.42681114998041      5.53914049315968
  N   6.00305045974456      8.77391932405004      2.96263721755488
  N   5.92312576609168      5.72885058449730      3.06823590293893
  N   3.97722583284336      5.65173790868514      5.33868668317644
  N   6.04072181728698      9.32184153768033     -1.81753228002489
  N   4.24159484346600      2.48877366327251     -0.06039345379823
  N   5.73567777993225      2.24272052194089      8.23752030004691
  C   6.71185078970871      7.77018004824754      6.62213154775836
  C   5.79454782800591      8.72658802172858      1.63378686934429
  C   5.19579867707216      4.97100688252809      2.22779769819937
  C   4.71686130954427      4.84872491958913      6.12414614361566
  H   5.02324483360280      8.03929460356805      1.29578789593108
  H   4.14820972461189      5.24126730685285      2.12386099223541
  H   5.76616296365764      5.10680610379390      6.23310987052378
  C   6.52339213431680      9.52414479967710      0.73295635994096
  C   5.76121551390235      3.89789162912600      1.51556805345552
  C   4.17376371168372      3.72674356112870      6.77606567725749
  C   7.49605290689295     10.40864222350913      1.24269016628276
  C   7.13159450091001      3.61537105609135      1.68745271468884
  C   2.80435171517335      3.43995484944642      6.60490657933421
  H   8.07158280758974     11.03536555027090      0.56617523496720
  H   7.58983526815340      2.79019803870158      1.14831416385074
  H   2.36021067255137      2.58058432335762      7.10061487336795
  C   7.69602402397508     10.45482738182208      2.62385859898078
  C   7.87433915031012      4.41461413233045      2.55940711994436
  C   2.04676218769169      4.27783413149262      5.78395400071906
  H   8.43431782464728     11.12288944128842      3.05978511050797
  H   8.93336105539770      4.23056559446631      2.72018012154350
  H   0.98929427666031      4.08934030227009      5.61795248144892
  C   6.93670592036214      9.62159209632662      3.44984432105184
  C   7.23774858495979      5.45988935260438      3.23285858310940
  C   2.66637343236925      5.36564932008279      5.16396239666374
  H   7.06879397130333      9.61135869129658      4.52806020739997
  H   7.76681710576179      6.10541645009191      3.92965672922060
  H   2.13294417293415      6.02867934621358      4.48912635581193
  C   6.26276017676229      9.41931804515516     -0.67053295800441
  C   4.93404468813708      3.11998858850750      0.64417486513248
  C   5.02302465422103      2.90651007411439      7.58494596934742
  H   2.83250294823678      7.95614846162431      3.03443072069562
