58
Coordinates from ORCA-job OBONOK-CH3OH_1_4_tpss_d4_lanl2dz_631gpol_Co2.opt
  Co  4.96794096943075      7.26843906673780      4.23447426661503
  O   3.25837911501988      7.26342942934115      2.79678423725216
  N   3.81679293667733      8.76244004015320      5.30807774841684
  N   3.06687159964145      9.11779259567357     10.05014563220171
  C   3.76281231806603      8.60949740548556      6.64532533001653
  H   4.24691686587992      7.72483762475833      7.04815733526466
  C   3.14111987781604      9.55251839033626      7.48429210967807
  C   2.56400447334924     10.70203195402249      6.90736934648725
  H   2.08002841799606     11.44478050215000      7.53628972357958
  C   2.63809606767706     10.86079630586778      5.52152728906669
  H   2.21625267401458     11.73707972187800      5.03602324392691
  C   3.27084997087608      9.87445062138837      4.76115648302991
  H   3.37124396989306      9.97137927934690      3.68090764165209
  C   3.10315968642712      9.32208929200405      8.89639379581642
  S   9.14173242910921      7.94853725853628      5.66182178623385
  N   6.39239125517232      7.30642040647772      5.62733627012051
  N   6.02792060869483      8.79678964576136      3.10226653752674
  N   5.92036584907911      5.74759262827303      3.05487852809442
  N   3.88637277699788      5.70341387167096      5.32852728471053
  N   7.62364425677940      9.13605085496260     -1.41552736498236
  N   4.23629392702912      1.58838138286907      1.34548108526005
  N   5.77637020251984      2.11623721187115      7.92457846766217
  C   7.57204855762451      7.56465569802572      5.65760861595430
  C   6.32777049421382      8.66149962182508      1.79813008726691
  C   5.20032412476803      4.68665664141195      2.64269035778030
  C   4.66799728549310      4.83893711259969      6.00671315595530
  H   5.90838195321425      7.79985109967280      1.28810023491925
  H   4.12407032789280      4.74716728504066      2.78269636688398
  H   5.73306802791807      5.05490588405989      6.00433032719171
  C   7.16032936413632      9.56215363606221      1.11051869989053
  C   5.79118083991376      3.54539542664227      2.07306301319479
  C   4.14401585389500      3.73044793293930      6.69638754486945
  C   7.70889798001336     10.65095060095571      1.81810610776261
  C   7.19364783938843      3.50853640479107      1.93307057172288
  C   2.75071397888684      3.52046817091258      6.68926756054441
  H   8.36292219453391     11.35716215070736      1.31328888575951
  H   7.67699813412526      2.63555682107471      1.50212456256000
  H   2.32225187021473      2.67191510989254      7.21630232132342
  C   7.39902503339359     10.78428035254006      3.17253061406536
  C   7.93364368360549      4.61094847490682      2.36597923247429
  C   1.94690885609723      4.42544063928462      5.99274144881573
  H   7.81077662916371     11.59832054923992      3.76272228947983
  H   9.01727000628029      4.62366005319948      2.28567613699309
  H   0.86722849200810      4.30440036393826      5.96235969483454
  C   6.56126827642912      9.84382189813618      3.77702957787828
  C   7.26821047876925      5.70759684387863      2.92004471889400
  C   2.55014341369110      5.49455901281094      5.32638923693415
  H   6.31397664317500      9.89694623344337      4.83342339940191
  H   7.81262117471119      6.57460153293935      3.28544008159202
  H   1.95697051932665      6.20994532599349      4.76382894096548
  C   7.42713799819049      9.34088879202621     -0.27790381787589
  C   4.95211789005671      2.45954545841193      1.66678331125207
  C   5.03537661667496      2.84186933239663      7.37819720829194
  C   3.16354749397621      7.28250306078734      1.34511371000107
  H   3.36989889894088      8.28522153259786      0.95185859303381
  H   3.91535089067351      6.57766991275979      0.98470674955903
  H   2.16878641999477      6.94575143978424      1.03265632500667
  H   2.53944151046279      7.81630410474513      3.16063735719309
