53
Coordinates from ORCA-job OBONOK-oxo_1_2_tpss_d4_lanl2dz_631gpol_Co2.opt
  Co  4.97749753849725      7.21324702344184      4.21685174336531
  O   3.74715407253800      7.26369128211411      2.97251686003872
  N   4.00395620968005      8.58743878566495      5.21913238996071
  N   3.57069003662907      9.64260601762438      9.88722565738853
  C   4.08679288805648      8.64865273421660      6.56236866356058
  H   4.74385448629231      7.92988867671300      7.04142075763904
  C   3.37076450793928      9.61345684174819      7.29173423546664
  C   2.56073415436543     10.53534298899242      6.59779407123271
  H   2.00365758110855     11.29080120451380      7.14594059117963
  C   2.49155933019681     10.44914149985348      5.20580448512063
  H   1.87679352649416     11.13699392498665      4.63147391754895
  C   3.21908006101217      9.46051529213481      4.54183214601071
  H   3.19084363360474      9.30903825646991      3.46556994782725
  C   3.47901883103608      9.63181914927548      8.71870182672412
  S   9.02091561205762      7.82229161512454      6.20774868815481
  N   6.35234454369290      7.14100141029620      5.60536153337790
  N   5.94526273863601      8.61537599042605      3.25288750393611
  N   5.90390790378412      5.81987775248237      3.18759013319410
  N   3.95504789036977      5.80856943828731      5.15295182922035
  N   6.52107791217441      9.35829478084027     -1.45865034602661
  N   4.14222344954161      2.18830086231647      0.58542584088225
  N   5.18275989942584      2.24573564950214      8.13480269181792
  C   7.49412190678717      7.43472275025184      5.86696364427025
  C   5.91657030370707      8.58718643408154      1.90498278749868
  C   5.14265456658475      4.92974497803010      2.51784549657157
  C   4.57954053196749      4.93677704750424      5.96875583785190
  H   5.31587101684962      7.80782979903705      1.44922546847652
  H   4.07098597064770      5.09775267306590      2.55642223875508
  H   5.64723748511008      5.07807660658151      6.09995447988871
  C   6.60770490838271      9.53837830667184      1.13711275625321
  C   5.71741798512924      3.87547802950443      1.78946700331999
  C   3.87325104214947      3.91370785781334      6.62460577908285
  C   7.32625180850640     10.55842879510455      1.79388234939207
  C   7.12135527151209      3.75958461987951      1.74451231791613
  C   2.48068923242177      3.81168243903351      6.43402155683670
  H   7.86722479624559     11.30345674368197      1.21633910224840
  H   7.58546119972809      2.95043932484852      1.18667242479189
  H   1.91698883718010      3.02969104579745      6.93616293231865
  C   7.31878123827497     10.58481628137924      3.18876831329444
  C   7.88857036931122      4.70602336716668      2.42544111133257
  C   1.85528141034330      4.72954520115226      5.58783698253742
  H   7.85243282892701     11.35336971923965      3.74079252606634
  H   8.97419713228576      4.66344660531013      2.41374922390324
  H   0.78426064293008      4.68683828321135      5.40922309780705
  C   6.62211603818069      9.59985799885389      3.89090926526299
  C   7.25459845602110      5.72316638639310      3.14134214449471
  C   2.61852984224426      5.71087144899308      4.95353606278241
  H   6.59890226575419      9.57669406825670      4.97392852611580
  H   7.81731997762748      6.46908072234787      3.69091643975882
  H   2.20138462381393      6.42195091884866      4.24690047194169
  C   6.56319376897521      9.44418948262477     -0.29036767395259
  C   4.85764249589856      2.94792627984878      1.11931828364869
  C   4.58892523936942      2.99970460846043      7.46189388191280
