48
Coordinates from ORCA-job ACOZIE-OH_2_2_tpss_d4_lanl2dz_631gpol_Co3.opt
  Co  5.31001002015766      5.44453040966853      5.80150265786977
  N   3.69783679719368      6.14938232377975      6.76232127601779
  H   3.27018107631846      5.29626423293481      7.15392416030656
  H   3.86214223927492      6.78885212550830      7.55042537602688
  C   2.74641776168874      6.77331697100275      5.76783575656152
  H   3.14942230045505      7.77364424250047      5.54496377638832
  N   4.26973296135731      5.80012857890539      4.14699327714944
  H   4.60049786828135      6.64315647206347      3.65854077075390
  H   4.46031973930540      5.01346019006244      3.50983348828502
  C   2.81243007010011      5.91005229182220      4.50605905013637
  H   2.49472570387684      4.88721290401253      4.75029978504470
  C   1.94271455606724      6.48787382152933      3.37843619423517
  H   1.99000643723519      5.83809580870562      2.49537842412793
  H   2.32682807185432      7.47926416117578      3.08927480095912
  C   0.48673363276721      6.61745577537601      3.88953268463659
  H   -0.11963300751684      7.06841309373736      3.09443070138105
  H   0.07590751879478      5.61460015718481      4.07644278393484
  C   0.40638270493496      7.46846664642226      5.16704784672874
  H   -0.62625581377913      7.50230736545724      5.53511853252638
  H   0.70123964968324      8.50615453606222      4.95008670434840
  C   1.30697293625699      6.89969669398861      6.29014117461468
  H   1.27939715397199      7.54760684476655      7.17624699341926
  H   0.94684500074132      5.90320780862536      6.59026496563823
  N   6.17833424141175      7.25216368750193      5.72484741739384
  H   6.87162040728973      7.17768004213685      4.96366775478442
  H   5.55568457739900      8.03537592953117      5.48769117258501
  C   6.90009473070331      7.54981974147312      7.02351706302952
  H   6.11662679400115      7.80242278383050      7.75485385206509
  N   6.49534194622816      5.19220761609596      7.39216751368982
  H   5.94266680326080      5.19680224292168      8.26074893511920
  H   6.90938053185299      4.25442137808499      7.30309437341227
  C   7.57281983072344      6.24271524713475      7.42903980962274
  H   8.29345386147249      5.94849930068710      6.65497020660406
  C   8.27098923216182      6.36445248074291      8.79341589187405
  H   8.76628929062947      5.41961764959840      9.05049107568608
  H   7.52215577256512      6.57925679075534      9.57266034596988
  C   9.29817920522322      7.52080462791732      8.71802178961664
  H   9.76079235203213      7.63687781160550      9.70595337280543
  H   10.10158562791247      7.24905749483770      8.01805077314726
  C   8.64080497142950      8.84087954478291      8.28317290178038
  H   9.39829780019716      9.62843882510230      8.18944152869271
  H   7.92424175646768      9.17612146299930      9.04797063182399
  C   7.91205519635503      8.69860920912608      6.92308050862209
  H   7.40592441780443      9.63549926329597      6.65478657420406
  H   8.64025295517861      8.46772837741955      6.13031344713769
  Cl  6.96842926983766      4.59337540989398      4.53717601469400
  O   4.55604218328010      3.85902747685020      5.99552966156493
  H   5.13529086556175      3.15918215038248      5.59463620298393
