46
Coordinates from ORCA-job ACOZIE_2_1_tpss_d4_lanl2dz_631gpol_Co3.opt
  Co  5.34052941011971      5.66098359349360      5.76231636592805
  N   3.71505607507560      6.27100647707770      6.72473610899996
  H   3.29562335195456      5.44170755399217      7.17695208273441
  H   3.85872071729300      6.94326708228644      7.49060657964110
  C   2.70369358943368      6.82358273233705      5.73450970157488
  H   3.05332471689540      7.83745138431923      5.48366784850542
  N   4.27043075749452      5.91107120757573      4.12610136354777
  H   4.51607553251665      6.76344871128464      3.60284566540797
  H   4.48917839393465      5.13324342676953      3.48472170754730
  C   2.80736039970779      5.93509463834388      4.49416196247851
  H   2.54894423348819      4.90018392408624      4.76716297628694
  C   1.88161236966566      6.41976144802583      3.36764977442656
  H   1.95385805330193      5.74329389660617      2.50645357103785
  H   2.20784890818940      7.41957251260530      3.03787968199482
  C   0.42980731238364      6.48797264561740      3.89605221162776
  H   -0.21359403856772      6.88420675087742      3.10146043925457
  H   0.07279486203771      5.47116855248237      4.11722265676764
  C   0.32218384661302      7.37034363096222      5.15230701286100
  H   -0.70556350050506      7.36149812174980      5.53417055293938
  H   0.55969762378490      8.41496047148386      4.90069624676202
  C   1.26954771811348      6.88507577952548      6.27559446436023
  H   1.21806851433473      7.55486314589127      7.14448125119840
  H   0.96719440135121      5.87909202770837      6.60891351891873
  N   6.22845197975950      7.36050995545459      5.73441227631628
  H   6.91647934925346      7.28715694410239      4.96785474426886
  H   5.60078051519033      8.14431338171732      5.50805086427327
  C   6.94979419833892      7.59647337964424      7.04559072245210
  H   6.17424786690533      7.89275457028677      7.76787692660602
  N   6.40231345795407      5.25837416822560      7.38766830919919
  H   5.86904064762617      5.29066176980724      8.26822521542494
  H   6.77812586512553      4.30223202958764      7.30710921053535
  C   7.54437623560414      6.24727777863244      7.44885474781110
  H   8.25352031342635      5.92133026493154      6.67629037912114
  C   8.24248255916985      6.33234832813083      8.81188926064852
  H   8.68353496405079      5.36079340045127      9.06930468889168
  H   7.50317539105161      6.58427729111803      9.58964816368179
  C   9.33380895900218      7.42766595337612      8.74863102425839
  H   9.79783017537425      7.52172519803303      9.73767344490056
  H   10.12533613220698      7.11269172244848      8.05300895918379
  C   8.75483975310816      8.78350772311771      8.30969964497292
  H   9.55611032223269      9.52675520207862      8.21447571257192
  H   8.05471984680953      9.16168809242681      9.06945120971004
  C   8.02646267225233      8.68801626765739      6.94338625816916
  H   7.57662198526617      9.65283217845452      6.67455253716076
  H   8.74440235951908      8.41296463950274      6.15550959463627
  Cl  6.87475120215568      4.62460004571263      4.57927236040441
