46
Coordinates from ORCA-job ACOZIE_2_5_tpss_d4_lanl2dz_631gpol_Co3.opt
  Co  5.16634740966864      6.16156241884948      6.01245174107791
  N   3.19763757671217      5.83760683226488      6.75843290573690
  H   3.09470137700689      4.81156949675630      6.75152328757935
  H   3.03365340267839      6.12340911736449      7.73159013162296
  C   2.15462733700085      6.44204150656658      5.85360796595745
  H   2.08419730661057      7.50293165632729      6.13672720392113
  N   4.04257178600797      6.99277274381830      4.40430988805141
  H   3.92842489537084      8.01513001597365      4.44956194142382
  H   4.52146076741554      6.79781426030933      3.51503527122543
  C   2.68467353884960      6.34158873837856      4.41736405985943
  H   2.85667261367378      5.28481852494279      4.16587081760693
  C   1.70330834102476      6.97014971382175      3.41121187077710
  H   2.09503320028323      6.85709775238122      2.39170883477337
  H   1.61661616633376      8.04906124476965      3.61901679299007
  C   0.31795489864238      6.29854767234794      3.54487819814865
  H   -0.37473312239171      6.78879012604086      2.84921723250064
  H   0.38932667614973      5.24523182792568      3.23584955487009
  C   -0.21479849754015      6.39285048851203      4.98357407290220
  H   -1.17508002342825      5.86925172386492      5.06857460900365
  H   -0.39862841761253      7.44434051899053      5.25009448949464
  C   0.77611194643757      5.77098767014885      5.99257914595744
  H   0.41009560087837      5.88597796934259      7.02139435879009
  H   0.88225333797732      4.69215741419756      5.79412409272782
  N   6.79433152880156      7.48717468442335      5.60366760093877
  H   7.40083500390101      6.93731588633606      4.97631807659847
  H   6.56997909315770      8.34613432556919      5.08697410485736
  C   7.55673609945437      7.82193830543973      6.86007068545985
  H   7.00571612132969      8.64571970178446      7.33825521414267
  N   6.05044886525406      6.23240632798716      7.94113762322203
  H   5.60658411741985      6.90749832528578      8.57989031312946
  H   5.96209091977074      5.31296266704203      8.39408964715564
  C   7.50306122027984      6.58902751622480      7.77274132607087
  H   7.96353832901209      5.73405317610792      7.25624314089773
  C   8.22402211150059      6.84904622418199      9.10722141437191
  H   8.19330773233219      5.94282701949330      9.72674097378240
  H   7.69381107796876      7.64586621193741      9.65388913578126
  C   9.68291995878281      7.28035763645054      8.83985424979493
  H   10.16440104643938      7.50127477046147      9.80053564171242
  H   10.23697881746001      6.44307506289360      8.39011879909951
  C   9.74313179600814      8.50986353791613      7.91931221563196
  H   10.78587347753887      8.76994391221108      7.69884574252638
  H   9.29559662758054      9.38034774144473      8.42186617017549
  C   9.00875278347066      8.25342996614695      6.58406853419245
  H   9.01559864814906      9.15491775388180      5.95703752823479
  H   9.51920084557336      7.45264735600787      6.02497339613027
  Cl  5.78425566106429      4.23028245687655      5.26654999909412
