48
Coordinates from ORCA-job ACOZIE-OH_2_6_tpss_d4_lanl2dz_631gpol_Co3.opt
  Co  5.47256300567712      5.20144138190687      5.60669376301482
  N   3.74142449351136      6.11796955749875      6.64442173987981
  H   3.31561429419808      5.27317147216230      7.05158552134341
  H   3.93306539254774      6.75855782345170      7.42281808284231
  C   2.77867108062809      6.75299564560736      5.68408795996115
  H   3.20109830705871      7.73656666605093      5.42384950887268
  N   4.14830141603370      5.73087942794182      3.93719120674626
  H   4.47541877312274      6.58762997056302      3.47255833846958
  H   4.22911270074214      4.97501546476837      3.24524032528750
  C   2.74447648656382      5.87958521178817      4.42379581585145
  H   2.41135331886368      4.86866397724263      4.69670779837429
  C   1.80649472112339      6.47547080681064      3.35149826972035
  H   1.78175218469278      5.81476901493959      2.47533930679756
  H   2.20037994121190      7.45130173829753      3.02523578223775
  C   0.39193110302555      6.65491347591935      3.94869055423191
  H   -0.24599472246448      7.11325195347730      3.18075414522512
  H   -0.03726916652017      5.66909671034241      4.17937494893641
  C   0.41840973324596      7.53005225450895      5.20965677163397
  H   -0.58637259083529      7.60755336042916      5.64324759764566
  H   0.73611938935729      8.55194869240985      4.95364932747472
  C   1.37045173166898      6.94129893473253      6.27630121230463
  H   1.42069213648271      7.59964078802062      7.15416635869069
  H   0.99409356886543      5.96311718656565      6.61489054267691
  N   6.28772006180067      7.27438011373423      5.70613711439158
  H   7.00021599164815      7.33683314873074      4.96618323233969
  H   5.60557885346888      8.01343255817471      5.50246957610883
  C   6.94070086868124      7.53884734017754      7.03484624565073
  H   6.12721653664205      7.76236088574737      7.74235918650448
  N   6.61243599969634      5.15446608892603      7.47612604863057
  H   5.99229936088827      5.21836926183985      8.29293068723668
  H   7.05093531824482      4.22552502653736      7.51268137032290
  C   7.63475013037320      6.24315387464287      7.47989838610929
  H   8.38285907409824      5.95898619082642      6.72693454460665
  C   8.30689835034630      6.41177150300939      8.86059892911382
  H   8.81604873012755      5.48012816743819      9.13858366922441
  H   7.53216101484113      6.61153271815997      9.61804720915893
  C   9.30244293737560      7.59350493560051      8.80765404217159
  H   9.73853117189666      7.71310591571687      9.80912079848900
  H   10.12809830303178      7.35066817864861      8.12323430104147
  C   8.61172802489025      8.89182782283685      8.36871521461366
  H   9.34147497188235      9.70795249267514      8.29578977684763
  H   7.86533017442676      9.19478646326389      9.11812531421017
  C   7.92628716516297      8.71941637399520      6.99356210890838
  H   7.39571327370603      9.63783486077063      6.70802481450786
  H   8.68742241984020      8.52145100130624      6.22187049105804
  Cl  7.14810126466114      4.59872198946981      4.28522547633915
  O   4.53788273615422      3.66834176611894      6.03000354114905
  H   4.85358996731360      2.81188980621654      5.65352304304602
