48
Coordinates from ORCA-job ACOZIE-OH_2_4_tpss_d4_lanl2dz_631gpol_Co3.opt
  Co  5.40743736793018      5.33072202119294      5.72504116900608
  N   3.70685593446324      6.04406929250873      6.64634026491698
  H   3.28376515324883      5.17057083720071      6.99407243464772
  H   3.87492334711763      6.64121288632213      7.46515236993737
  C   2.74431308400571      6.72594032864230      5.70711295227288
  H   3.14934226356786      7.73464531415104      5.53068196586290
  N   4.17393657444870      5.86110048795948      3.93494887574712
  H   4.47192820236515      6.72489251950279      3.46473588576639
  H   4.32532612266886      5.09319926303461      3.27009475333978
  C   2.75761473327166      5.93983794090514      4.39000818049111
  H   2.44486183832776      4.90561235980743      4.58827285080491
  C   1.82130344423095      6.58813746747983      3.34776746167859
  H   1.82970743546135      5.99197358758668      2.42645940049161
  H   2.19646231375789      7.59410452331574      3.09975820431781
  C   0.39258410154718      6.68986006201847      3.92850992156859
  H   -0.24650675753830      7.18570464723603      3.18629938473691
  H   -0.01470825697017      5.67959960181361      4.07982957189469
  C   0.37679012081498      7.47078627406779      5.25072380219469
  H   -0.63603037920591      7.49059997826511      5.67199878592994
  H   0.67117158407620      8.51662809184976      5.07696045769172
  C   1.32509060569873      6.83096140200851      6.29177677018739
  H   1.34146635676034      7.42310002464554      7.21667894781523
  H   0.97018222963084      5.82008476633670      6.54720367322734
  N   6.28234581433858      7.15997801753235      5.71886571829693
  H   6.99845660382583      7.11403240393941      4.97846162362862
  H   5.63857013731070      7.91587379415591      5.45437666606851
  C   6.95385555666904      7.50432103986105      7.03359385150468
  H   6.14506461687884      7.81103790529163      7.71447759527829
  N   6.52400087666644      5.18525489948617      7.60731691755084
  H   5.93653695464111      5.29358971178043      8.44395632483411
  H   6.91555552919593      4.23618440126425      7.64717349818043
  C   7.60052335566532      6.22262796241411      7.56390922288656
  H   8.33735338469801      5.86255340549138      6.83251544839358
  C   8.27932398994790      6.46412493454319      8.92569161756650
  H   8.75948217912228      5.53888083174529      9.26886755567133
  H   7.51381420785746      6.74030364476026      9.66875271942181
  C   9.31433500985950      7.60493079348869      8.78982794232209
  H   9.75613425860681      7.79055222762768      9.77719510655938
  H   10.13182011742407      7.28173447038709      8.12889244938285
  C   8.67013509118686      8.88916838109357      8.24733787939710
  H   9.42892330466707      9.66964817072672      8.11061740366338
  H   7.93614225310069      9.27904346070758      8.96833803269124
  C   7.97552456116991      8.64300379602884      6.88592297450937
  H   7.47957076286009      9.55712668449417      6.53280707057719
  H   8.72476633895329      8.35351909878944      6.13235912794053
  Cl  7.05152177355427      4.54177979056127      4.46389904522113
  O   4.62755733497415      3.75066814112947      5.87860382505543
  H   5.17907856714593      3.03089835484868      5.48021229887015
