119
Coordinates from ORCA-job AMIGAG-OH_0_5_tpss_d4_lanl2dz_631gpol_Co2.opt
  Co  -2.60799750884369      4.95590155163483      7.49491280444699
  Cl  -4.67978603265226      5.16381695683574      6.28759302989284
  Cl  6.13177630793896      1.50487646833701     -0.71735575702230
  Cl  3.71299882788621     14.64553877706669      2.42646533020500
  O   2.10813584104099      5.75202165995214      4.61668336420717
  H   2.74119562391805      5.18327900601998      5.09912174311745
  O   1.97053151105955      7.85849348572993      6.45597432933853
  H   1.97421870631812      7.40539277253624      5.58142596906685
  N   -1.67080073953485      4.27839382278431      5.70239729901177
  N   -0.13534755983434      3.89148546857245      4.19700945996067
  N   -1.31159862481320      3.42374896638074      3.63823659453088
  N   -1.99386258429321      6.93019892299687      6.73911978490272
  N   -0.79033710406219      8.61522444898193      6.00907936241486
  N   -2.05637188288064      8.82007456040905      5.49486628853650
  C   -0.37299054648160      4.39208363418589      5.43187280325604
  H   0.37262793609719      4.79709648047132      6.09918759485539
  C   -2.20186491272967      3.68885171887811      4.58728996602652
  H   -3.25830311824296      3.47679608511377      4.49176442459204
  C   1.09545636507832      3.83696906838078      3.47064434380015
  C   1.83605989172571      5.14917380716536      3.32428095188658
  H   2.78531078476043      4.93612680787696      2.81745926169382
  C   1.09724223518530      6.21296633812212      2.45509325381371
  C   -0.17429466252119      6.76442889697908      3.13244021432225
  H   -0.98805977518942      6.03030086670498      3.14414920486760
  H   -0.52932235027989      7.64522012770123      2.58141045552774
  H   0.03100183070096      7.07498602454226      4.16124903595797
  C   2.09962630517435      7.36750739254687      2.22641047463249
  H   2.42061644493273      7.80553212784570      3.17994029591385
  H   1.63473543476855      8.15818578834211      1.62273099961326
  H   2.99550968625736      7.01337817659319      1.69577631039605
  C   0.73406004240571      5.57463436116167      1.09872749809674
  H   1.61605020220709      5.13330190053227      0.61204912211989
  H   0.32636509630435      6.34341504491902      0.42865554091811
  H   -0.02415976867599      4.78995444147346      1.21827963017327
  C   1.39392414003793      2.67970358654749      2.83948313551427
  H   0.65484887774327      1.88056161795052      2.91311069705617
  C   2.56917796230784      2.41189491772652      1.99267478793623
  C   3.88262181347000      2.73748984248583      2.39063121279669
  H   4.05624453664598      3.17336799492943      3.37334280711794
  C   4.97735262097563      2.46392617989064      1.56700232869658
  H   5.98749516600191      2.70844746073506      1.88496511874881
  C   4.75875300949683      1.85017855894779      0.32853604511146
  C   3.47134914884324      1.49005815030904     -0.08546718884248
  H   3.32259692891567      1.00230660938951     -1.04523808331414
  C   2.38824953415624      1.76390206951697      0.75320418386825
  H   1.38384601080711      1.48790090527236      0.43602589013798
  C   -0.77796443113762      7.47392937440923      6.74818124148042
  H   0.09228781779829      7.07676827667083      7.24626702707507
  C   -2.73504006283822      7.78521165726856      5.96292292556397
  H   -3.78095335995963      7.61057555443357      5.74812030515956
  C   0.29368920792034      9.47000614501392      5.62992769797101
  C   1.64076773629326      9.24364686856501      6.30687118470636
  H   2.38599656594780      9.73772659025115      5.66896251937673
  C   1.79164582336417      9.92069446029492      7.71000813469318
  C   0.82471791326860      9.35273146281172      8.76788051974006
  H   -0.22495162110350      9.54675565185642      8.50783288418946
  H   1.01922514162137      9.84083258844249      9.73333027262001
  H   0.96405992235936      8.27330047850416      8.90657449396273
  C   1.55806820015177     11.43788944775010      7.56021357290201
  H   2.22346296133234     11.87506682506827      6.80259611256392
  H   1.75940729741614     11.93765494315775      8.51766539693050
  H   0.52208716984717     11.66145657088107      7.27300600702615
  C   3.24637864893451      9.67411600863043      8.16853090861212
  H   3.44371481195446      8.60276262725430      8.28359708532887
  H   3.42417786184699     10.17122760374551      9.13237212078698
  H   3.96163199960931     10.08300931427961      7.43927892508823
  C   0.02049667896298     10.45419611101043      4.73956638382677
  H   -1.02420581252764     10.56383811317137      4.44896106425582
  C   0.95634372173761     11.44110884394566      4.17337529368570
  C   0.56563963366010     12.79655462007469      4.13950626892527
  H   -0.40221029173929     13.08152208260015      4.54935968628553
  C   1.40299120696488     13.78393445916592      3.61474917487441
  H   1.09779776074696     14.82711560172215      3.60790363443072
  C   2.64627447237430     13.41071212486210      3.09334573408696
  C   3.05134052678938     12.07173980078529      3.07644634790650
  H   4.00783619453030     11.79573805275531      2.63997052884704
  C   2.20414476680905     11.09823709204883      3.61168575989873
  H   2.50412384370194     10.05433541660167      3.55896414887302
  Cl  -0.31937146875440      4.99994498819089      8.66453823684049
  Cl  -10.49529821641645     10.98156047381770     15.09487719185094
  O   -7.52352936117918      5.71978969094919      9.99925478051945
  H   -7.92038212330929      6.45145621009287      9.48490650615692
  N   -3.43977986503519      6.07096840791198      9.08786148393298
  N   -4.87213762444194      6.91246139845435     10.50750773577778
  N   -3.63731862953953      7.37688102238323     10.92203208109287
  O   -2.77257745695950      3.32406626007381      8.27108844734374
  C   -4.73089931428596      6.13774800206986      9.40300279726934
  H   -5.54469074437183      5.65716917073685      8.88168185143068
  C   -2.81354735598668      6.83397723886178     10.03710706145186
  H   -1.73849926528320      6.95363825103908     10.06584858708431
  C   -6.06604720453027      7.29149329971663     11.19758837281462
  C   -7.15626341051908      6.24190691418486     11.29329235246969
  H   -8.02327598864392      6.73254357693901     11.75489913040772
  C   -6.81891074950624      5.02943374332692     12.21769304843484
  C   -5.69841928561323      4.12200079355574     11.66731145575085
  H   -4.71608736252377      4.60935897724255     11.69862432912309
  H   -5.63379215862361      3.21901587734737     12.29068029368786
  H   -5.90484629484068      3.80442497626454     10.63798625283090
  C   -8.11900518077968      4.20194711164932     12.34356475663322
  H   -8.43814131845609      3.82462435729375     11.36527004492072
  H   -7.95422152047800      3.34671873396753     13.01321012529661
  H   -8.93374601239097      4.80992829181337     12.76459169889633
  C   -6.41776174825145      5.57030759338532     13.60571522098881
  H   -7.18330050077531      6.24904292418730     14.00953535026206
  H   -6.30180808215212      4.73397116181785     14.30834973773961
  H   -5.46481285862469      6.11452342966710     13.56590727490356
  C   -6.06954040950140      8.49553009955729     11.81515584772297
  H   -5.13919209047813      9.06348557349618     11.78006681172108
  C   -7.17133799361973      9.08291066342597     12.59678701695244
  C   -8.49889458312661      9.13101963140003     12.12156554111755
  H   -8.72945234395833      8.74359638811575     11.13043328940306
  C   -9.52107452119035      9.70743617216917     12.87953404556801
  H   -10.53959690877355      9.74595585437828     12.50201923549461
  C   -9.21274966454354     10.25369050521545     14.13015508133748
  C   -7.90254420708230     10.24767822712294     14.62106079480862
  H   -7.68004032481873     10.68686047908490     15.59006881596462
  C   -6.89155203093743      9.67177378788443     13.84755146767806
  H   -5.87047654142807      9.66125760130756     14.22579424066049
  H   -1.95477123703329      3.16697352039241      8.80149632408299
