118
Coordinates from ORCA-job AMIGAG-oxo_0_6_tpss_d4_lanl2dz_631gpol_Co2.opt
  Co  -2.55094467888003      5.06084645275496      7.56885266957818
  Cl  -4.60155650644761      5.30933198480097      6.25056396484680
  Cl  6.01257925023047      1.48941698700671     -0.82292153574497
  Cl  3.96216135905953     14.56843738587449      2.28547483735749
  O   2.14355761148388      5.79331618444093      4.59628140211415
  H   2.81098994428514      5.24576964263433      5.05657735081907
  O   2.04296116139115      7.90204030372247      6.44152286064173
  H   2.03169377248006      7.44238083065120      5.57037246800152
  N   -1.59237691695729      4.30319937359903      5.81737893153554
  N   -0.08923136323664      3.89678347420645      4.28541277046980
  N   -1.26241422026082      3.35713905819860      3.79032244702242
  N   -1.95087324300276      7.06730519413541      6.72023805458687
  N   -0.70093707987672      8.71183879131881      5.96015788932012
  N   -1.95655370784786      8.93100173957167      5.42697429627223
  C   -0.30909690201128      4.45139240346437      5.50041513344666
  H   0.44309286759611      4.92024189135277      6.11486393253509
  C   -2.13338558671605      3.63517449890636      4.75208722118989
  H   -3.18331479537469      3.38054927187065      4.69939732732977
  C   1.11906492662604      3.84531400061563      3.52155716882556
  C   1.83507963566177      5.16383059836182      3.32324995290485
  H   2.77061318167227      4.95206042383531      2.79132719497087
  C   1.05659598388450      6.19874903783448      2.45480934010681
  C   -0.21299006000176      6.73638422387418      3.14681833703719
  H   -1.01506700405054      5.98982210284904      3.17841021948773
  H   -0.59101182923621      7.60578221227405      2.59321746981615
  H   0.00198223964102      7.06146420278354      4.16918952224445
  C   2.02888936878175      7.37005336267154      2.18588364077398
  H   2.35002407859519      7.83780179223172      3.12462166421914
  H   1.53766660312496      8.13570005914019      1.57125237647219
  H   2.92609281527970      7.02482736170875      1.65149441340616
  C   0.68007598068029      5.52876425307115      1.11717260988573
  H   1.56208720081075      5.10217088133591      0.61756496148574
  H   0.23729065977399      6.27544872068887      0.44449815134813
  H   -0.05469730645729      4.72691436765930      1.26591433641816
  C   1.41255614659413      2.67871407381118      2.90500132821557
  H   0.68755789293292      1.87193849712189      3.02178686916687
  C   2.55702765558710      2.40845801641657      2.01810257413970
  C   3.88103334640804      2.76314955696403      2.35057132998446
  H   4.09069055247316      3.22486550703311      3.31429282866864
  C   4.94319316437816      2.48574043323774      1.48649978698237
  H   5.96222120806086      2.75270604921873      1.75405794290374
  C   4.68096714343664      1.83877444197294      0.27369986868306
  C   3.38274739529789      1.44935301880869     -0.07496161560667
  H   3.20033330838476      0.93608800662030     -1.01542945912199
  C   2.33300165672544      1.72717400853416      0.80370646043539
  H   1.32030207174658      1.42834724972734      0.53773958552202
  C   -0.72552522057428      7.58704733847844      6.72739553985476
  H   0.13406323369645      7.18789532840265      7.24124154925579
  C   -2.66091313876609      7.92063354689254      5.91479542283561
  H   -3.70755436330149      7.76413520173817      5.69042272288546
  C   0.40661225527083      9.53093100366038      5.57341822767162
  C   1.73858355203163      9.29212709613806      6.27358161411740
  H   2.50094266855491      9.76487045731603      5.64017771298455
  C   1.88751124047743      9.98620759699783      7.66836721958141
  C   0.90535669069953      9.45085609258822      8.72917759920342
  H   -0.13968152914271      9.65500596974920      8.45889078754407
  H   1.10145477112337      9.95245064058809      9.68737942006156
  H   1.02848938900870      8.37210029449201      8.88708510616691
  C   1.67790587120827     11.50428365677966      7.49309409856335
  H   2.35781176332981     11.91981823703993      6.73615303999189
  H   1.87631317009211     12.01614898767772      8.44474631277471
  H   0.64850934686165     11.73789895594942      7.19070669406061
  C   3.33477599837732      9.72449985962404      8.14228251211168
  H   3.51490434915304      8.65204853226142      8.27505347918321
  H   3.51315943412821     10.23318218497456      9.09996095834813
  H   4.06194103385342     10.11102499221143      7.41267286720545
  C   0.16958035667711     10.49677228342047      4.65250942634626
  H   -0.86862308345382     10.62013439214643      4.34456571774723
  C   1.13135389434468     11.45124290078851      4.07456530524667
  C   0.75455492569399     12.80809883099802      3.98046881265042
  H   -0.22130401727979     13.11570482299067      4.35340817759704
  C   1.61390383955291     13.76904848543455      3.44238722479935
  H   1.31788330967147     14.81354627107578      3.38936206783121
  C   2.86713872850105     13.36740910942105      2.96817722638788
  C   3.26022345687726     12.02549200934243      3.01085788088457
  H   4.22519039475930     11.72589898252836      2.61001418448915
  C   2.39071275806526     11.07895138703625      3.55837907966729
  H   2.68452549452357     10.03193961043107      3.55067690807547
  Cl  -0.41258409569675      5.10770337769279      8.71908529962262
  Cl  -10.77567422985810     10.60703724639889     15.17584215894966
  O   -7.46559262817007      5.55269356380237     10.04124422047513
  H   -7.90501694586173      6.24849358243479      9.51191387903750
  N   -3.43556079351851      6.19015941349482      9.12047346798729
  N   -4.92100284452316      6.94847303750277     10.53035254986248
  N   -3.73162418078928      7.55038532929262     10.89710848661407
  O   -3.08524961651534      3.52971309399820      8.20295390668749
  C   -4.72138423152851      6.14109168308003      9.45908456176108
  H   -5.49307563935775      5.56359101365591      8.97373469249124
  C   -2.87252144973975      7.05319840799034     10.02006505399089
  H   -1.81574183341339      7.28319019272009     10.02350920835952
  C   -6.13403944217274      7.23938989501982     11.23027980773599
  C   -7.14914260436867      6.11621469573813     11.33148162661173
  H   -8.05311114589329      6.55332525530847     11.77538265469869
  C   -6.74319292161707      4.94284645416164     12.27894521421858
  C   -5.53916682344474      4.12157477549712     11.77217686837988
  H   -4.60233044610732      4.69125756063627     11.80946596558074
  H   -5.41117098599083      3.24191457889549     12.41829844447684
  H   -5.69603611638818      3.76272859893791     10.74775638966962
  C   -7.97739543751889      4.01721845714458     12.38113395732707
  H   -8.23485167375980      3.59883621727384     11.40147481661693
  H   -7.76735232626800      3.18933047800447     13.07218767544968
  H   -8.85070030711248      4.56570523663476     12.76502211523720
  C   -6.42454478082942      5.52839441582695     13.67033418817740
  H   -7.25773499977816      6.13646635153641     14.05172540818975
  H   -6.24779655191815      4.71111497153982     14.38267987500052
  H   -5.52450084125791      6.15713426231237     13.64688461393762
  C   -6.22169376106307      8.44167304158924     11.84530385391586
  H   -5.33586226991067      9.07633599603514     11.80307710821154
  C   -7.35575021380998      8.94955204557928     12.63656955355960
  C   -8.68814148497145      8.90765044152210     12.17481214093783
  H   -8.90270675519224      8.50874566772873     11.18463772421499
  C   -9.73927124688045      9.41064675307659     12.94552271645787
  H   -10.76190284448955      9.38041331472839     12.57852364260166
  C   -9.45627281434345      9.97293575190934     14.19505178309067
  C   -8.14370446740105     10.05573751169881     14.67244726589288
  H   -7.94170815328503     10.50629062159796     15.64071906752548
  C   -7.10391013458646      9.55317338810785     13.88626793218315
  H   -6.08055951741026      9.61179633180797     14.25377432743751
