119
Coordinates from ORCA-job AMIGAG-OH_0_1_tpss_d4_lanl2dz_631gpol_Co2.opt
  Co  -2.78505733801335      6.03546292234673      7.37231225620281
  Cl  -4.67253650804104      6.27327795896766      6.04424507137395
  Cl  5.27600384884719      0.65953847614207     -0.24892746875033
  Cl  4.99075996714874     14.09309660762576      2.06068476801186
  O   2.00533329293622      5.84601214574601      4.67052705653335
  H   2.50589411154565      5.21512212462144      5.22638121991662
  O   1.99929993494693      8.01377170591548      6.44469682256669
  H   2.01967848599470      7.52797963653671      5.58822603884805
  N   -1.92584496250801      5.04714783943900      5.97649896940240
  N   -0.50192174767374      4.24735593475971      4.53442566269323
  N   -1.67586453315836      3.54624899920674      4.31609522302210
  N   -2.03622467703585      7.75505003677316      6.63774655133987
  N   -0.56735636496640      9.19793865212330      5.87626888356053
  N   -1.76334261541537      9.53721005347462      5.27358880358293
  C   -0.67139807717758      5.12912389309091      5.54909611866803
  H   0.10697094009100      5.76486648425677      5.93477025510675
  C   -2.50085773758393      4.06487782726135      5.21308120801653
  H   -3.53172020813509      3.77035462889990      5.34343931958361
  C   0.67340314081253      3.97679164291051      3.77462582988018
  C   1.57730669619328      5.15318025554108      3.46458603730254
  H   2.46364393243821      4.74287347097301      2.96607067527776
  C   0.99036699197646      6.21473439516344      2.48412965140484
  C   -0.17831505031175      7.03147466926072      3.07236173974860
  H   -1.08672838970195      6.43129872080608      3.19966459801021
  H   -0.42114978024154      7.85982671686325      2.39356416581054
  H   0.08956271135577      7.46943552192296      4.03985202352168
  C   2.14920417245140      7.17631037354111      2.13179462684663
  H   2.52397951155694      7.68594418701404      3.02823191484752
  H   1.80384600743918      7.93848067335977      1.42071975526352
  H   2.98819808371586      6.63402878237165      1.67204965071530
  C   0.52657207509406      5.48655962136451      1.20504196323486
  H   1.33146328108934      4.87150933064911      0.77758460640912
  H   0.22644093793794      6.22571826275408      0.45037462874715
  H   -0.33401340433922      4.83554334169413      1.40552742948563
  C   0.81810201846803      2.73190552677995      3.26243513936548
  H   -0.00519152001968      2.03851100868279      3.43739248072281
  C   1.92718783358235      2.24460637468317      2.42528292028899
  C   3.28221036271505      2.43792951982772      2.76819298573893
  H   3.53580714500789      2.93644317230407      3.70273669203210
  C   4.31194370910889      1.95749146831518      1.95549334476951
  H   5.35293465039299      2.10319452390428      2.23199084537594
  C   3.98527917451535      1.26469921688523      0.78448020802187
  C   2.65225656661610      1.02911402574801      0.42940834510708
  H   2.41779858723053      0.47674138864314     -0.47677790437033
  C   1.63471610666125      1.51110134633807      1.25631194771662
  H   0.59563878096054      1.33322679647508      0.98390911858280
  C   -0.75673496471107      8.13081185821574      6.69421823803242
  H   0.01675022933291      7.65860899650854      7.27711977763397
  C   -2.60916508808702      8.64575659614072      5.76277801891200
  H   -3.65509333059138      8.59738241350627      5.49301648603380
  C   0.65088127446578      9.84239177272699      5.48771098848152
  C   1.92758213538021      9.42655513733816      6.21155435225191
  H   2.75898181105412      9.73570839132545      5.56478397107809
  C   2.17555766367656     10.15608409707874      7.57280761202418
  C   1.08965787375428      9.87178627923566      8.63010553986979
  H   0.10335930550736     10.23622774375071      8.31082654659436
  H   1.34718957649904     10.39615954116418      9.56105576728961
  H   1.01652100515654      8.80213903476054      8.86337347233610
  C   2.25193037573035     11.67474179765540      7.31354302597565
  H   3.00778044691807     11.91572173669149      6.55290231495340
  H   2.52880428229393     12.19199201569097      8.24234327517520
  H   1.28819858797763     12.07787851617759      6.97542689818709
  C   3.54024064946160      9.66369892224335      8.10482230125747
  H   3.51910111349821      8.58593424067239      8.29941990545053
  H   3.78604720482855     10.18664377327179      9.03947514844945
  H   4.34242502902033      9.87037891957061      7.38076857146953
  C   0.56464989985283     10.80665236881880      4.54016037254674
  H   -0.43988143319184     11.07684916497199      4.21480673497900
  C   1.67078665058601     11.57154071583971      3.93941111341227
  C   1.53974471387442     12.97096712769295      3.81815673929008
  H   0.63822191625301     13.45588847853140      4.18970668061918
  C   2.55118331685367     13.75084717318955      3.25222245922940
  H   2.44593444958140     14.83003406379048      3.17702168213174
  C   3.70753998834215     13.12171177210238      2.77866483650975
  C   3.85599436470111     11.73227542399577      2.84923125839126
  H   4.74764494719004     11.25699662928501      2.44842321576891
  C   2.83723795073415     10.96861276060924      3.42416134495988
  H   2.93547903216747      9.88540709227424      3.43913979580504
  Cl  -0.92674346321443      5.76046569400003      8.73658302866622
  Cl  -11.46905375420175      8.95488103997789     15.51765072618928
  O   -7.27684971450608      5.17041429334639      9.97897869489435
  H   -7.89268448535313      5.74893300754684      9.48517417880216
  N   -3.68713835234757      6.92448373778650      8.79101096112957
  N   -5.21609899614131      7.24650693963570     10.30212590174407
  N   -4.22973822048898      8.17852285074229     10.57793029731884
  O   -3.50978245968713      4.43661992557880      7.96883038900337
  C   -4.87513855840307      6.50498589246446      9.22180814278281
  H   -5.45073044514954      5.69979434589232      8.79595997499324
  C   -3.32955812276627      7.93418659745975      9.63798405716843
  H   -2.38939012630541      8.46151040515270      9.56425464227049
  C   -6.39265671790148      7.16567761741389     11.10797902398344
  C   -7.01902430762393      5.79068870093839     11.25480611041801
  H   -7.96616472845073      5.93477055904278     11.79171228776508
  C   -6.19775649791581      4.78354023377586     12.12103292074330
  C   -4.81040083674637      4.43505809696893     11.54064054659155
  H   -4.11271249713555      5.28003441909068     11.60361330776726
  H   -4.37804318252591      3.61270724758633     12.12842216897335
  H   -4.86621211839810      4.10832213834933     10.49495965785366
  C   -7.04478745672118      3.49371415308293     12.21729311725261
  H   -7.17182509238992      3.03319694750159     11.23139927683135
  H   -6.54815222055996      2.77299586137136     12.88163968304075
  H   -8.04160655160213      3.70654376872735     12.63181745796504
  C   -6.02989118394773      5.38984000403757     13.53021752077842
  H   -7.00172667267598      5.64981531023135     13.97497646549090
  H   -5.53913766492134      4.66106040796429     14.18955202081127
  H   -5.41096821702190      6.29676396282433     13.50777477184605
  C   -6.77603954947707      8.28314672608560     11.76807670530371
  H   -6.12472915439831      9.15273563514466     11.67489191756779
  C   -7.93734601489287      8.42260087504743     12.66359709628656
  C   -9.23156157269679      7.98979410621465     12.30513318548177
  H   -9.40063028385614      7.55504320255284     11.32132094131843
  C   -10.31562693198012      8.14692988821195     13.17228687752586
  H   -11.31022015458610      7.81616383777707     12.88454762451081
  C   -10.10805860584906      8.75458341005247     14.41526351502233
  C   -8.84413286774684      9.22087852051391     14.79244566464367
  H   -8.70422461734357      9.70083089246855     15.75757410237925
  C   -7.77221396100219      9.06012797893750     13.91087701101172
  H   -6.78514797336185      9.41750428518489     14.20037593395733
  H   -2.81675679032408      4.12869166652660      8.59493146727863
