117
Coordinates from ORCA-job AMIGAG_0_4_tpss_d4_lanl2dz_631gpol_Co2.opt
  Co  -2.50390329977899      5.83728646252412      7.66132882157525
  Cl  -4.64007278059274      5.57650213472019      6.57521756382029
  Cl  5.94992330770819      0.76633259125811     -0.03008756238582
  Cl  4.24256532803641     14.29358171290542      1.42616922524387
  O   2.27496852234581      5.89240348262712      4.76018759453801
  H   2.84766604796996      5.32803925859181      5.31728071241000
  O   2.04938581027091      8.19752366034706      6.34897119230373
  H   2.09204158311600      7.61910717029147      5.55275249279366
  N   -1.61609746288845      4.82005640468970      5.98757220372078
  N   -0.10643223804352      4.16195747714567      4.54446887519167
  N   -1.30740853200931      3.69034165150302      4.04557076335364
  N   -1.93021919477817      7.59708581414148      6.69978924635308
  N   -0.61271706858850      9.06343549369133      5.73782189145468
  N   -1.83244830978713      9.18861018648051      5.09869189859304
  C   -0.31484082853146      4.82789967088624      5.70523966571000
  H   0.45479558552652      5.27170134334545      6.31779252214034
  C   -2.17843118905143      4.12280082342858      4.95011307481224
  H   -3.24579069291093      3.95959766481742      4.87859334394652
  C   1.11726066473271      3.93688682979132      3.83960632028819
  C   1.94812498955111      5.16645018888836      3.54571794260590
  H   2.87712408728269      4.83298903786443      3.06709632697572
  C   1.28036121988235      6.17421878125284      2.55941362615297
  C   0.04392325512160      6.87347114918852      3.16022484187897
  H   -0.81961359882594      6.20185420573290      3.22752256644749
  H   -0.24480359442581      7.72364454368421      2.52833535164391
  H   0.25887595111686      7.26277268457374      4.16021202805825
  C   2.35364333401045      7.23282002876340      2.21902010374904
  H   2.69272314850276      7.75207344692363      3.12429312011731
  H   1.94296038399625      7.97838863679677      1.52534789193000
  H   3.23145041348319      6.77081356188212      1.74375720143403
  C   0.88316372909566      5.41370865758460      1.27732781131031
  H   1.73580701833144      4.86126739397443      0.85616276741878
  H   0.53258752918963      6.12705858073840      0.51945442081074
  H   0.07253157548476      4.70054085459318      1.47476242549043
  C   1.33156368145342      2.69505715261524      3.35002918802331
  H   0.53560460573531      1.96689893475812      3.51268146467488
  C   2.47987311232459      2.24328975641030      2.54678957179717
  C   3.81571805799368      2.53074086183628      2.89734632089206
  H   4.02668509464045      3.07758783702541      3.81506969614930
  C   4.88232740011971      2.08313140549522      2.11415869557447
  H   5.90925749790061      2.30042985440389      2.39604227502805
  C   4.61221317901391      1.33050109973780      0.96569170836608
  C   3.30037064180309      1.00358222348081      0.60429162761624
  H   3.11105162443703      0.40638395006277     -0.28381734301619
  C   2.24558591517709      1.45278136038814      1.40240270323221
  H   1.22234749891914      1.20372107207045      1.12570543645622
  C   -0.69579696201101      8.09820535465260      6.69311437458990
  H   0.12026329008055      7.76515315403004      7.31436732582889
  C   -2.58269909598347      8.28799739641096      5.71305636036282
  H   -3.61557376531001      8.09151019755294      5.45571875491629
  C   0.52096554897471      9.80636336644227      5.27533243790362
  C   1.85649323194911      9.56495097896684      5.97570517335467
  H   2.63290461368582      9.87179871300194      5.26280843421681
  C   2.09904310866668     10.44139821349435      7.25091364800368
  C   1.10029886535259     10.14153834023339      8.38569030237013
  H   0.06647139974669     10.36577012074599      8.08882204833063
  H   1.33723172911467     10.77295239330818      9.25357946652451
  H   1.15823890974222      9.09540333129673      8.71075434267286
  C   2.00767618622913     11.93264292858054      6.86860564760811
  H   2.70548264896805     12.18523972683448      6.05815530538726
  H   2.26407129465133     12.54974649834073      7.74072189234703
  H   0.99526531832973     12.20804789372495      6.54552247906669
  C   3.53206213467934     10.13226174993244      7.73822839722891
  H   3.63540704385613      9.07466461456877      8.00418605417783
  H   3.76766088150048     10.74337523777540      8.62067559489155
  H   4.27016608127182     10.36850767272707      6.95705081604180
  C   0.30589678694640     10.69660326025523      4.27645869688774
  H   -0.73134991509027     10.83846588169878      3.97385273938451
  C   1.29927733510706     11.53724545644073      3.58598158823653
  C   0.99764021197154     12.89891734521244      3.37180213834050
  H   0.05354958923889     13.29927867117616      3.73855803249820
  C   1.89252074683633     13.75067716146377      2.71974132755505
  H   1.65545735039984     14.80135531032073      2.57388513885985
  C   3.10400758801665     13.23085412201033      2.25186843435173
  C   3.42032631845379     11.87767615141517      2.41279567937189
  H   4.35227387777877     11.48335506209982      2.01577863837424
  C   2.51650764812523     11.04206290622980      3.07348348557011
  H   2.74667866298004      9.98295474103115      3.15811486436140
  Cl  -0.38347488665561      5.56190295483900      8.83081689472999
  Cl  -10.68239360910140      9.71133998287778     16.25252844628422
  O   -7.63390382052008      6.36402548611110      9.79333450215015
  H   -7.86714825043232      7.29155131297559      9.58747991209326
  N   -3.42796521666394      6.34706762384932      9.45724947520325
  N   -4.94894595058496      6.81859280888930     10.95999219693382
  N   -3.73991686802421      6.93683845607123     11.62102726296891
  C   -4.74067153694151      6.47272098346254      9.66620406426931
  H   -5.52098876668745      6.30809338102903      8.93700269461811
  C   -2.86316335855010      6.63921908902668     10.67545343917233
  H   -1.79344428970364      6.60240775901485     10.83480656292805
  C   -6.17994934779771      7.09229757644858     11.63453089811602
  C   -7.38793434229116      6.27906374801037     11.21203869697159
  H   -8.24385056918763      6.69137553877245     11.76241293028517
  C   -7.33542734219812      4.76604794867005     11.59618352337663
  C   -6.31114064644342      3.95402801303652     10.77599945173358
  H   -5.27584942686828      4.20730788287528     11.03640600016803
  H   -6.44827432709634      2.88518816510932     10.99289967651528
  H   -6.45188033462156      4.09929048643800      9.69802926969051
  C   -8.75005820267189      4.20218466703449     11.32950313850052
  H   -9.01497259979000      4.29864841599461     10.27010212294395
  H   -8.78863389979417      3.13940559250522     11.60531202987193
  H   -9.50443398827611      4.73547611849061     11.92715981603562
  C   -7.01125449071388      4.65242452514669     13.10027093546656
  H   -7.71006829327522      5.24533787243390     13.70847092108948
  H   -7.09134175217203      3.60366949390784     13.41697940578118
  H   -5.99163289398529      4.99681058997956     13.31873839824304
  C   -6.13880259976273      7.95971543553569     12.67265385767937
  H   -5.15587377313372      8.34197102323157     12.94993195039959
  C   -7.26984185382685      8.37904477035288     13.51798974859064
  C   -8.50013866337448      8.81631439971681     12.98323040762786
  H   -8.62826583219693      8.87249284304341     11.90332595715185
  C   -9.54876036402674      9.22298200525821     13.81194161187759
  H   -10.49043141746227      9.56484867341561     13.39033400816983
  C   -9.36494225006316      9.20212464471908     15.19872008062762
  C   -8.14924348746396      8.80059855965966     15.76297298491576
  H   -8.02077221580929      8.80203820972881     16.84225507457766
  C   -7.10931525366119      8.40215910725972     14.91930254773514
  H   -6.16161494649009      8.08639280919036     15.35275986820858
