123
Coordinates from ORCA-job AMIGAG-CH3OH_0_2_tpss_d4_lanl2dz_631gpol_Co2.opt
  Co  -2.67468592156288      5.72518585217162      7.23696884305063
  Cl  -4.90571134649169      5.75667302913895      6.02946689593031
  Cl  5.83653504623949      0.99517684541152     -0.27502556737433
  Cl  4.39023615215070     14.53454580531946      2.25654161506722
  O   2.06996352135927      5.89197328176503      4.75179826937049
  H   2.62525129493795      5.30199804508830      5.29992789041790
  O   1.97112843596729      8.09698798476640      6.48089114015389
  H   1.99378724280839      7.60940763678723      5.62571040583984
  N   -1.84455424798355      4.84452409087476      5.72417741301178
  N   -0.30189440555051      4.23257307215296      4.30342151296168
  N   -1.50206164995001      3.92868471831794      3.68422999266950
  N   -2.05135529807852      7.40986540945517      6.51847662037827
  N   -0.71176041439982      9.00161473002915      5.84153341442140
  N   -1.93308029897760      9.27068750924906      5.25321560831633
  C   -0.52607776852145      4.77403407084067      5.52138228832718
  H   0.22544302306354      5.06527991912832      6.23989841679226
  C   -2.39793126121979      4.32807449646987      4.57770618897033
  H   -3.47014628869000      4.28910260006431      4.43118533033132
  C   0.94563256651802      4.02214038087162      3.63575126660994
  C   1.82166697720693      5.24801037118727      3.47627955721875
  H   2.77514586326770      4.92038170520992      3.04386240966590
  C   1.24442279868690      6.32953715199024      2.51060176003108
  C   -0.00777443408460      7.02892971982233      3.07737563549498
  H   -0.88629407963412      6.37409157051064      3.07404936643350
  H   -0.24739754919539      7.90768446069898      2.46401386335103
  H   0.16590275128695      7.37596354069913      4.10040901484865
  C   2.36223719156892      7.37689641072334      2.30187071008438
  H   2.64943647608298      7.84003159556728      3.25433731642324
  H   2.01470861746574      8.16782523778148      1.62410902953720
  H   3.25969624285257      6.91863687418338      1.86092418809736
  C   0.90972985701266      5.66023324001014      1.16221202173938
  H   1.77478721800560      5.11468028367544      0.75779076011415
  H   0.62083822665715      6.42808221419309      0.43208735504316
  H   0.07393885521521      4.95634903305150      1.26542458119248
  C   1.14216974493864      2.81569461002913      3.05925425423897
  H   0.31795639530451      2.10426597413796      3.13184627897846
  C   2.30888835760557      2.38782469708091      2.26886314047641
  C   3.63643568094001      2.59284417166114      2.69889554007093
  H   3.82523587221226      3.05230194125944      3.66787160385983
  C   4.72063016482974      2.16988343738490      1.92607422912329
  H   5.74081047035147      2.32236043724448      2.26844307417021
  C   4.47630009337329      1.52670804856731      0.70746531100993
  C   3.17136947059501      1.28361033763228      0.26419784712344
  H   3.00136633211487      0.77113236164247     -0.67902268940469
  C   2.09820644410589      1.70605026295309      1.05244703662244
  H   1.08037370942776      1.52240521469816      0.71203065569452
  C   -0.80408596110439      7.87439754367735      6.59624438570098
  H   0.00582305910696      7.42908201263997      7.15383429076102
  C   -2.70369654941339      8.28852288754411      5.69202348682854
  H   -3.74547249782929      8.15699075240920      5.42754040840649
  C   0.44466498382467      9.77270209370413      5.49968405737984
  C   1.73100435212483      9.49239692616550      6.26723338068481
  H   2.54143908675722      9.92375962032725      5.66446068239841
  C   1.83423475838245     10.20454755889332      7.65774005892678
  C   0.78040331070460      9.71474074963645      8.67122411309205
  H   -0.24090892827766      9.95919365794592      8.34797249566648
  H   0.94762377021468     10.21430813334601      9.63580102165641
  H   0.85417470821250      8.63286287528825      8.83889731550958
  C   1.68746598683293     11.72638190678872      7.45519433413566
  H   2.42590914731864     12.11041880778558      6.73746174986660
  H   1.84546772951050     12.24187307432171      8.41243513595862
  H   0.68687537049443     11.99158531250668      7.08881568716565
  C   3.24495285212533      9.89908249326038      8.20939466598956
  H   3.37931946282947      8.82315108500998      8.36554384010608
  H   3.39186778882034     10.41564187619010      9.16817957309190
  H   4.02192481074814     10.24918552238194      7.51345261533655
  C   0.28919294157616     10.73487296065598      4.55831483571744
  H   -0.72714568769152     10.89905767079863      4.20062322293874
  C   1.32240746710643     11.62729505565200      4.00522013807265
  C   1.03230375966351     13.00249481783527      3.88096544895353
  H   0.06642367997834     13.37564852164258      4.21836763035353
  C   1.96516909163601     13.89968271650604      3.35497748210319
  H   1.73607961412951     14.95935890895718      3.27745908241695
  C   3.20446961561732     13.41410490823126      2.92459886383761
  C   3.51324275910210     12.05168368932327      2.99942064557463
  H   4.46930618232719     11.68695334803351      2.63264994824479
  C   2.57099130578478     11.16968540994445      3.53423004697055
  H   2.79716878397836     10.10614483017694      3.55173587395149
  Cl  -0.50938054647134      5.28630355988742      8.68136359300667
  Cl  -10.74034387066918     10.14347674262762     15.39413142675857
  O   -7.27178293944730      5.47476477741654      9.99636240803220
  H   -7.82561739900828      6.11331172291396      9.50314045292993
  N   -3.44913151076855      6.61957589879730      8.73336170240418
  N   -4.89049333711293      7.19189823666896     10.26441691052543
  N   -3.72050597059476      7.84586584024330     10.60716930238194
  O   -3.16734641619261      4.00809343074817      8.20123819212566
  C   -4.71103185615821      6.46713622479211      9.13443833447575
  H   -5.46193214423545      5.87081029349869      8.64100913684225
  C   -2.88302924572886      7.45821243029606      9.65718020717060
  H   -1.83977714160437      7.73902986199772      9.62864392745056
  C   -6.07116839050878      7.33662370331027     11.05634136572273
  C   -6.90394641174456      6.08450887833710     11.25039267019260
  H   -7.80782934271052      6.38598840324953     11.79641362522793
  C   -6.22678239216505      4.98513282008683     12.12992567560193
  C   -4.98746702057084      4.34229356923114     11.47173624564135
  H   -4.13335929207680      5.02929014119342     11.43345510712199
  H   -4.67887900991415      3.47203144168996     12.06876452810812
  H   -5.20428633286929      3.99528131149249     10.45457451806652
  C   -7.29637815481114      3.89365709366981     12.36493807291880
  H   -7.61159723822422      3.44356227634569     11.41656008925456
  H   -6.88811428458938      3.10377104491769     13.01057458276301
  H   -8.18386940250775      4.31264415895326     12.86245039017281
  C   -5.83182898752455      5.61557561002760     13.48111635854864
  H   -6.69062491629427      6.10745308849220     13.96104444722334
  H   -5.46545197560194      4.83406222243221     14.16070471209880
  H   -5.03438808947506      6.36060684568941     13.35913301405857
  C   -6.26160724389977      8.52540053014457     11.67356719212264
  H   -5.47252251610210      9.26827013280036     11.54991983772570
  C   -7.37564458902422      8.89449125117892     12.56279856420961
  C   -8.72645805920999      8.65024212861930     12.23660887010629
  H   -8.97568386776744      8.19320881271655     11.28039873646184
  C   -9.76028515183349      9.02685703635963     13.09750468112365
  H   -10.79838894889197      8.84143708191973     12.83418976290192
  C   -9.44276799828802      9.66613906218641     14.30081247484362
  C   -8.11614377974795      9.94866999818613     14.64397334131336
  H   -7.88944670579542     10.45665265606533     15.57776233264796
  C   -7.09496517089892      9.56966688506833     13.76913518098049
  H   -6.06007519409419      9.78377865221947     14.03174297091046
  C   -3.50879760457135      2.81927053742910      7.45321583998484
  H   -2.66352007981014      2.47829614070211      6.84207825072241
  H   -3.81046706048449      2.03236533643421      8.15621603361584
  H   -4.34807834706125      3.10715354526915      6.81489278565163
  H   -2.28253694734308      3.90680647461538      8.64867423356872
