56
Coordinates from ORCA-job ASOVOT-OH_1_5_tpss_d4_lanl2dz_631gpol_Mn2.opt
  Br  0.93349444656430      2.43345965221143      5.54047794432603
  Mn  0.06516955097951      0.75033995316457      3.88979166283899
  N   -1.93987431198642      0.47918311573282      4.83561214168847
  N   -0.92398090535352     -0.80347752598395      2.74066550961674
  C   -2.40211654623885      1.23405427950954      5.85315990498275
  C   -3.75427820387365      1.29656274389108      6.18713045283153
  C   -4.69135668908464      0.56653156197051      5.43447238311185
  C   -4.19711798763887     -0.21475437816057      4.37838332105351
  C   -2.82391222687166     -0.24431428950200      4.10275110827947
  C   -6.16785634220379      0.63937041463152      5.73545074766021
  C   -0.31852295622181     -1.48703820077548      1.75237732293289
  C   -0.97854279674297     -2.44030447227505      0.98114290190500
  C   -2.33339366811039     -2.71874076460314      1.23829210883829
  C   -2.94982950110942     -2.00286199902571      2.27436378414996
  C   -2.23175348475360     -1.04507787514306      3.00493716926625
  C   -3.08880816720309     -3.74580431519016      0.43162113980313
  H   -1.64558429607447      1.80227816625629      6.39112757535497
  H   -4.07219052513932      1.91895677836244      7.02106111368928
  H   -4.89334402688756     -0.78119276277259      3.76472666979905
  H   -6.35668731691022      0.50074688308181      6.80783569058614
  H   -6.73111510731927     -0.11858446529315      5.17968422812572
  H   -6.56333608688681      1.62759768133018      5.46033270055634
  H   0.72663432916810     -1.24035093468985      1.58322066063631
  H   -0.44302945681498     -2.95804975678064      0.18802527989933
  H   -2.60971681125851     -4.73124875573746      0.51109456533271
  H   -3.09386703277505     -3.47175166735772     -0.63226208145104
  H   -4.12719678796835     -3.83820975190411      0.76826385589768
  H   -3.99155914849681     -2.20345373179147      2.51153145216768
  O   -0.53120961877028      1.97607525835451      2.72453001699601
  N   1.97526702903272      0.49865403392375      2.91608829428284
  C   2.40447850997899      1.27570191851096      1.90381717004550
  C   3.74319572867435      1.31607419742311      1.51794498072900
  C   4.69218728708933      0.54040546749641      2.21010138189964
  C   4.22791480142782     -0.26076118453198      3.26633873495730
  C   2.86845171936565     -0.26381824457269      3.59768018560632
  C   2.27687714195082     -1.04608606219026      4.70124613361356
  N   0.97653381865775     -0.75356291870934      4.98877063899273
  C   0.36342444693904     -1.41659128638399      5.99109980660402
  C   1.00654167627527     -2.38979003838699      6.74875396868979
  C   2.34823504149151     -2.71352897348589      6.47457120514678
  C   2.97180710306378     -2.02070787356540      5.42732312996006
  H   4.00474600903911     -2.24749222186990      5.17565120106208
  C   3.08065287389530     -3.76093874378443      7.27503528785917
  H   2.56424239683563     -4.72861473532415      7.21211596235995
  H   3.11437535986269     -3.47897968910215      8.33632996836380
  H   4.10864304401292     -3.89334255335104      6.92072496136619
  H   0.46448196451652     -2.88839690707844      7.54927256647191
  H   -0.66761193544605     -1.13316424166978      6.17756421189720
  H   4.93496687891590     -0.86047915605995      3.83461972305828
  C   6.15620540948698      0.59140719360396      1.84995485174313
  H   6.29555102425408      0.55250645609448      0.76221987147115
  H   6.71315456311894     -0.23488768315329      2.30575168968643
  H   6.59899649308816      1.53407916182572      2.20275341750974
  H   4.04589905276667      1.95502196366116      0.69099880998253
  H   1.63192621309034      1.87096341745058      1.42189667007868
  H   -0.44109197540182      2.86967786171900      3.12447384568673
