54
Coordinates from ORCA-job ASOVOT_1_2_tpss_d4_lanl2dz_631gpol_Mn2.opt
  Br  0.58090079802726      2.89139334475793      4.81127253702356
  Mn  0.04157372118436      0.67801072990265      3.96412975593736
  N   -1.81785395699254      0.67218966187446      4.66089270566528
  N   -0.74750254018145     -0.67490941850912      2.76234262808858
  C   -2.30298868757883      1.43372948484733      5.67803340474655
  C   -3.61201015790847      1.33238558478986      6.13304870018589
  C   -4.50733698113244      0.42374101619501      5.53428220019615
  C   -4.00547866691605     -0.35636668633428      4.48561628886058
  C   -2.67514567507259     -0.22162877204996      4.06874066420751
  C   -5.93897666998280      0.31007402904571      5.99398283782099
  C   -0.09878179615522     -1.31684896756736      1.75663583457522
  C   -0.71632121428004     -2.25619932679511      0.94239437148160
  C   -2.07047800696261     -2.59095298739520      1.15001503598953
  C   -2.73196049671758     -1.93104096088190      2.19215484260366
  C   -2.06618149535672     -0.98146203568825      2.97805570063917
  C   -2.76725155058659     -3.61302194173709      0.28756543328550
  H   -1.59698261093283      2.13959634136029      6.10569647655657
  H   -3.93416088348976      1.96995402079644      6.95371679960334
  H   -4.65612454385408     -1.07374703622731      3.99144276564661
  H   -5.99186948365501      0.17739819910240      7.08275083918148
  H   -6.45063751204483     -0.53230758731840      5.51501073498477
  H   -6.49255345886629      1.22849430815589      5.75221911007546
  H   0.94438115336067     -1.05078997483757      1.62091485771132
  H   -0.14112168320338     -2.73115491689148      0.15016976110233
  H   -2.27191566215723     -4.59074105470635      0.36874836034033
  H   -2.73152888742033     -3.31792885536872     -0.77002807848919
  H   -3.81688434848525     -3.73441110735776      0.57653072032718
  H   -3.77817021107830     -2.15257828386120      2.38799485758185
  N   1.82936590292971      0.62681737172457      3.17255691569957
  C   2.26292945134943      1.44045297402632      2.17700739084566
  C   3.53913212272119      1.33981913495545      1.63905843301090
  C   4.44817459583493      0.38529899050472      2.14475501907244
  C   3.99874396157740     -0.43600939881756      3.18514644982419
  C   2.69539591081409     -0.30111883088946      3.68238884173270
  C   2.11836919858871     -1.06730400081536      4.78178067177178
  N   0.81850772664197     -0.72482297688587      5.05563816429650
  C   0.18641137956676     -1.35597339423923      6.07715587236841
  C   0.80857914514812     -2.32527402211524      6.85260551529655
  C   2.14334689850811     -2.69789052948517      6.58792373620100
  C   2.78560773790502     -2.04583731633371      5.52919993192504
  H   3.81798863610212     -2.29158048146271      5.29089276031938
  C   2.84103263486389     -3.75024735299119      7.41311107351741
  H   2.32294272091483     -4.71589216286600      7.32871544979090
  H   2.84145925052422     -3.47348551354888      8.47614689900770
  H   3.87938061411538     -3.88888207822178      7.09266753998233
  H   0.25227512983053     -2.79082809972228      7.66379143373412
  H   -0.83917888528434     -1.05092978675129      6.25822359921531
  H   4.66705700408645     -1.17892395650914      3.61425135454673
  C   5.85092887746994      0.27944011340771      1.60035790766469
  H   5.84034652513239      0.16116267860224      0.50854885140116
  H   6.38930626048981     -0.56892667419515      2.03714993914058
  H   6.41712057869243      1.19515151180682      1.82227634025724
  H   3.83466664828028      2.01761790958886      0.84134207130903
  H   1.55467148163560      2.19298908393252      1.84097769213908
