56
Coordinates from ORCA-job ASOVOT-OH_1_3_tpss_d4_lanl2dz_631gpol_Mn2.opt
  Br  0.93409085419812      2.35811972321179      5.42436925340697
  Mn  0.02850574846049      0.66700138563950      3.83264450155257
  N   -1.81147717024723      0.58979718592201      4.68466430610304
  N   -0.80522007931315     -0.75395580383777      2.69753794792696
  C   -2.25343356443551      1.34190488554685      5.71605344367073
  C   -3.57739595684932      1.30780541399430      6.15011628789357
  C   -4.50958647055849      0.47546093453816      5.50695542792471
  C   -4.03635491047391     -0.30643336803309      4.44186100008989
  C   -2.69623543051524     -0.23225258403993      4.04841852279677
  C   -5.95742708977470      0.44118042797864      5.92742105629395
  C   -0.18687123223571     -1.39720579882688      1.68722779106255
  C   -0.84415374046419     -2.31662920945363      0.87527248548244
  C   -2.20298231853436     -2.60341256141146      1.10288264029219
  C   -2.83233204271741     -1.92650852648043      2.15744414584567
  C   -2.12111421538595     -1.00518531298681      2.93540094501564
  C   -2.94793463333083     -3.59647416790287      0.24651104063374
  H   -1.50415497719787      1.98049463896754      6.17814399648482
  H   -3.87557741602726      1.93719657934348      6.98584381298243
  H   -4.72231009721145     -0.96595590636424      3.91618752237780
  H   -6.04930353950081      0.39677202783692      7.01992520053703
  H   -6.48383245975762     -0.41682590654440      5.49458169668636
  H   -6.46802378679380      1.35624478350191      5.59402799471631
  H   0.85854608797196     -1.14724216501959      1.53660777523940
  H   -0.29922458027280     -2.80325960293299      0.06926798965726
  H   -2.50093581452328     -4.59620427815195      0.33751402772082
  H   -2.89303715206484     -3.31103585838307     -0.81265815412899
  H   -4.00314687132946     -3.66357782995861      0.53263704135792
  H   -3.88271876147150     -2.11655627541927      2.36264693927549
  O   -0.50878970922192      1.89499683667145      2.63158706598127
  N   1.83213302449923      0.55733455321922      3.06292725904262
  C   2.25052772683962      1.32202273669071      2.02642810649562
  C   3.56123564236243      1.28555300124031      1.56510511690920
  C   4.50831183834793      0.44129859853227      2.17852956926414
  C   4.05914595619573     -0.34843979954099      3.24420612621288
  C   2.72825000527078     -0.27472109087235      3.67303290114447
  C   2.15687335131022     -1.04478876632824      4.77971154446871
  N   0.83828302482056     -0.78445702215860      5.01351113537075
  C   0.21456911199619     -1.43863319159819      6.01676781234408
  C   0.86438454742078     -2.36433040300616      6.82418972082073
  C   2.22760673697333     -2.64829581756046      6.60770921499982
  C   2.86253068930754     -1.96938756335407      5.56083145892284
  H   3.91448878646985     -2.15554911877019      5.35948517322553
  C   2.96746253852246     -3.63663473479820      7.47402654439284
  H   2.49005309555233     -4.62528812261684      7.43101697135812
  H   2.95302446149902     -3.31398393340203      8.52418126662886
  H   4.01189196097097     -3.74289993915387      7.16126372046054
  H   0.31336303021601     -2.85558573447136      7.62323825248551
  H   -0.83017421459632     -1.18694229517441      6.17061163015221
  H   4.75318650636781     -1.01651667224404      3.74848195313399
  C   5.94569409339237      0.40912439840832      1.72128651162402
  H   6.01116758053532      0.33986120457027      0.62775993221673
  H   6.48804870058710     -0.43698265152325      2.15820893380044
  H   6.46041962831637      1.33330586209935      2.02116096741737
  H   3.84521526719868      1.92367891354024      0.73091614450500
  H   1.48091907419506      1.95872096626135      1.59901891011497
  H   -0.43101083499330      2.77756695460573      3.05819941760853
