46
Coordinates from ORCA-job BPYMNB-OH_1_3_tpss_d4_lanl2dz_631gpol_Co2.opt
  Co  1.80568395910217      8.37741468129457      3.53576530736527
  N   3.36123989488461      9.85078189994829      3.77054697866301
  C   4.45821412501976      9.38691579805490      4.41762886913776
  C   5.66382688479551     10.10263205255285      4.41305351120096
  C   5.72300415470726     11.31819772265292      3.72607461017620
  C   4.58375319432973     11.78811953121151      3.06105342421537
  C   3.41886452019623     11.01720913997377      3.10469352345698
  N   3.04512758162679      7.49823351542755      4.85974537428691
  C   4.25168887066201      8.09035874147867      5.09106489446475
  C   5.19950988175705      7.48051610757934      5.92430747349909
  C   4.90790315184639      6.25190656990372      6.51822714760017
  C   3.66517309893410      5.65658228732338      6.27307124917867
  C   2.76184667508117      6.31453841517176      5.43852485149272
  N   0.57798075564427      8.94751936037125      4.99926768307833
  C   -0.58221712605715      8.24938171128951      5.13819084344268
  C   -1.52025755538365      8.61517320349937      6.11479512223760
  C   -1.26232156448261      9.71190926264902      6.94067593575850
  C   -0.06669925645081     10.42130763121545      6.77975545451978
  C   0.82902537962111     10.00287834949479      5.79423630130576
  N   0.34730877016949      6.80655963324924      3.48424735619169
  C   -0.75477293783542      7.10768291808584      4.21436884879602
  C   -1.94445867243297      6.38171618769957      4.06415741410319
  C   -1.98098231510610      5.33170819330966      3.14021573997105
  C   -0.83800111073935      5.03584237203463      2.38759157892263
  C   0.31133556196412      5.80728980324914      2.58694064714446
  C   4.01263891778186      7.42905582634931      1.94197180490475
  N   2.82294980556048      7.61079478419771      2.06396791812005
  O   0.84455033549396      9.38567217186221      2.41945275054865
  S   5.59097526510462      7.15762920924808      1.75320415357891
  H   -2.89619401240179      4.76005428282719      3.00307390386996
  H   3.39569631145218      4.69988553477721      6.71220456939372
  H   1.78851202261038      5.89739617311060      5.20136937207907
  H   4.59487089753125     12.72788024108341      2.51508225987824
  H   1.76983493693235     10.51418699946417      5.61190248600804
  H   1.22986588042936      5.65632433912402      2.02397957776559
  H   -2.43729200186069      8.04488026412264      6.23210599718741
  H   -0.83521901245265      4.23299694782188      1.65490961972916
  H   -2.83178812841440      6.63727680323920      4.63676968014634
  H   6.54542356495869      9.71475348582158      4.91500062962581
  H   6.65053425507997     11.88553912284212      3.70316115423511
  H   -1.98421093416140     10.00560748488886      7.69929488914777
  H   5.63917455259327      5.76726245499469      7.16081343733519
  H   2.49852016189305     11.31432205211823      2.60668474667113
  H   0.17113905389376     11.28212594391729      7.39885331782697
  H   6.15532103514391      7.96299402478096      6.10501646978953
  H   1.31098117097804      9.28600676468754      1.55651112194889
