44
Coordinates from ORCA-job BPYMNB_1_4_tpss_d4_lanl2dz_631gpol_Co2.opt
  Co  1.98360241904305      8.02094691539890      3.53768983109338
  N   3.43131525145290      9.57084691893965      3.73899659828440
  C   4.46738449296359      9.27642892613195      4.56947628269853
  C   5.61990536772939     10.07511848551491      4.60865038881188
  C   5.70056647535397     11.19505905908525      3.77641174204847
  C   4.63586063228289     11.48522013422566      2.91615855725392
  C   3.52310744764670     10.64104443337259      2.92529406461120
  N   3.20888518963394      7.28999304229718      5.03257955058085
  C   4.28601827613926      8.04995974657269      5.37425678702265
  C   5.14032189569657      7.66178061722729      6.41725971558400
  C   4.88765597592607      6.47139325474287      7.10342428716249
  C   3.78351845492765      5.69188532649310      6.73759943933017
  C   2.96896355282076      6.14248059162693      5.69769602547479
  N   0.60672275566633      8.92983339746713      4.87491308107853
  C   -0.54174946154085      8.22512862459707      5.08096541639445
  C   -1.47716676456147      8.63012581176248      6.04464075796553
  C   -1.23396092207923      9.78466343988907      6.79374447857665
  C   -0.05742738150874     10.50835578379141      6.56855561792112
  C   0.83622289233758     10.03941899189787      5.60384359896126
  N   0.35114881825449      6.72945813772780      3.43510855889242
  C   -0.71780554843958      7.03158759048638      4.21923716082131
  C   -1.89048646972543      6.26501269819362      4.16626435979738
  C   -1.95219999325767      5.17516029030343      3.29144178099294
  C   -0.85029152282921      4.88271292607256      2.47888192342262
  C   0.28385168011802      5.69263977614888      2.57659127075998
  C   3.45932513500607      8.09594648801736      0.95204941086267
  N   2.66240659433478      7.69140937810875      1.76583009058003
  S   4.50353483337724      8.65665336058839     -0.13997097777827
  H   -2.85529892135147      4.57132974427324      3.23825014177283
  H   3.55602713960349      4.75700111715885      7.24283983987703
  H   2.09715916659478      5.58069314165530      5.36972661627784
  H   4.66734508429528     12.33464583678865      2.23948550962031
  H   1.76895287605106     10.55519659660950      5.39113409411820
  H   1.16748111715209      5.54369584082029      1.95978620074797
  H   -2.38186637879026      8.05310917885905      6.21321620647621
  H   -0.86746497367586      4.05183721466051      1.77858699952817
  H   -2.74944561226171      6.51703964175956      4.78164287377095
  H   6.45156284225877      9.81769108528682      5.25866044873060
  H   6.59059630406138     11.81995831055979      3.78738518530548
  H   -1.95274451939436     10.11094986942344      7.54202742047803
  H   5.54353269700788      6.15870447056202      7.91282137774572
  H   2.67968235580881     10.80455533773547      2.25843201241999
  H   0.16752742476775     11.41331647334296      7.12676553205551
  H   5.98712332110299      8.28231199382206      6.69654974186904
