45
Coordinates from ORCA-job BPYMNB-oxo_1_2_tpss_d4_lanl2dz_631gpol_Co2.opt
  Co  1.82751577171889      8.27777449343016      3.55429407632913
  N   3.23043049648379      9.59645165010067      3.69247102069777
  C   4.28479773886459      9.27762728893977      4.49498005815335
  C   5.38391932169815     10.13843010483384      4.59609913288330
  C   5.39639179007664     11.31758677910099      3.84564131701180
  C   4.31452224853501     11.61002070320050      3.00702842028088
  C   3.24072111674081     10.71886655085967      2.94996284056364
  N   2.99163823568905      7.32202250882406      4.89252638139240
  C   4.15039555576222      7.97982717805390      5.17429694712527
  C   5.11461361464774      7.41737869446075      6.02070863334104
  C   4.87789654519543      6.15958363498596      6.58035442101296
  C   3.68367524371446      5.49270557258852      6.28259574416635
  C   2.76581074432312      6.11073921177372      5.43085253896110
  N   0.71615622874547      8.98307154039087      4.99455152795094
  C   -0.48590327580761      8.35294553438091      5.12101047214368
  C   -1.42801057204391      8.78835358787518      6.06172997799017
  C   -1.12720964485066      9.88278854025457      6.87567045488579
  C   0.11305578811065     10.51581635101269      6.73622615296356
  C   1.00932528875622     10.03593318626752      5.77983368717697
  N   0.41989020116530      6.96503268622764      3.42332732752220
  C   -0.66310091140391      7.21542794294984      4.21057927427697
  C   -1.81407336290220      6.42476936622024      4.11945338231929
  C   -1.84707271668995      5.37523223484542      3.19596376984178
  C   -0.72911799930219      5.14073806816399      2.38830211835065
  C   0.39270906148819      5.96262112846617      2.52604578886174
  C   4.01366395307602      7.53772880693503      1.87775123980641
  N   2.84837880194380      7.40767061579834      2.17820748212584
  O   0.91424301369834      9.27384048093311      2.43927238200284
  S   5.56318303221077      7.63827070231871      1.45066781677579
  H   -2.73708369544232      4.75708843397984      3.10495501205090
  H   3.46512764323528      4.51048009246049      6.69292592477162
  H   1.82870312348954      5.63599218161044      5.15491979488334
  H   4.29899871920004     12.50784122077071      2.39533929754993
  H   1.97752128742778     10.49801981849545      5.61914137801110
  H   1.29045411883139      5.86380476626362      1.92192767360606
  H   -2.38413380528390      8.28119899806156      6.15252493219205
  H   -0.71959662477652      4.34238390817242      1.65113620437836
  H   -2.67489350774953      6.63045836983407      4.74920787391120
  H   6.22463703387005      9.88324930396210      5.23456575168963
  H   6.24903073948028     11.99003805022819      3.90486524091478
  H   -1.85111457679063     10.23592656435524      7.60614311188346
  H   5.61832970327655      5.70451590706364      7.23397471347204
  H   2.36150656368174     10.83530733143950      2.31838868771646
  H   0.38592694110399     11.37086626461796      7.34865602486065
  H   6.03974102680174      7.94687364449111      6.22942399119423
