45
Coordinates from ORCA-job BPYMNB-oxo_1_4_tpss_d4_lanl2dz_631gpol_Co2.opt
  Co  1.83133074977038      8.37091694738384      3.37934853419873
  N   3.32921500378464      9.75303758952590      3.61268234997490
  C   4.35953632578669      9.37638622822433      4.41567584708162
  C   5.50664252653101     10.17295391783938      4.53420650364083
  C   5.58808065368624     11.35829309046550      3.80017245073397
  C   4.52770420019531     11.72072917940820      2.96019490072407
  C   3.40979129641468     10.88691587861770      2.89238625358879
  N   2.98775693593600      7.45161409096111      4.77032550034738
  C   4.15043385998002      8.08739877400350      5.09401193045095
  C   5.05444328473127      7.51318249211721      5.99844333100426
  C   4.76500510149631      6.27144258044870      6.56415607285018
  C   3.57488317603721      5.62339278797433      6.21140209033488
  C   2.71367245475656      6.24810651178375      5.31017170197771
  N   0.63297790837770      8.98540101410771      5.00888610776938
  C   -0.50371687180933      8.26698654763562      5.18578716594985
  C   -1.40991087669213      8.60008130910259      6.20420726051533
  C   -1.13494329590973      9.69150572025207      7.03266358405737
  C   0.03893411168616     10.42632746316773      6.83108082742561
  C   0.89885103758771     10.03492015996172      5.80198748276466
  N   0.32342722424650      6.93810604771951      3.37012671669807
  C   -0.69815482670537      7.14436602616349      4.23886159289195
  C   -1.84226685028886      6.33547267367575      4.19916350983674
  C   -1.92311144807367      5.31867259822031      3.24167744309518
  C   -0.86463368862307      5.13060328116542      2.34620424228382
  C   0.25002509442650      5.96984797092882      2.44027477238731
  C   4.12608771079798      7.27069178094234      1.99604308054648
  N   2.91968701633947      7.27948718275288      2.04692478993284
  O   1.01645013000707      9.31171633100447      2.32503469383323
  S   5.74317551397674      7.23919010654552      1.95848779601258
  H   -2.80809955578973      4.68816335607248      3.19260249301368
  H   3.31516058918317      4.65031288457869      6.61921743391714
  H   1.78442303369858      5.78774608698422      4.99170009272736
  H   4.56222266825201     12.62864733961641      2.36415491322010
  H   1.82185299078790     10.56860207501522      5.58998663723685
  H   1.11302650893746      5.90134008258957      1.78151141621471
  H   -2.31658182965667      8.01991527221016      6.34937903893541
  H   -0.89723886019803      4.35723707673322      1.58337676738791
  H   -2.66403231824906      6.49921227308271      4.89034434562186
  H   6.33110804564738      9.86366341956889      5.16975668009109
  H   6.47486479354026     11.98349908513743      3.87310663715664
  H   -1.83075887591291      9.96418491902564      7.82286232292976
  H   5.46108688854498      5.81217146489667      7.26197674138319
  H   2.55138053637046     11.09790461326786      2.25927149275908
  H   0.28447971960180     11.28487302357099      7.45049588529744
  H   5.97733220679231      8.02808074554995      6.24816856919888
