44
Coordinates from ORCA-job BPYMNA_1_4_tpss_d4_lanl2dz_631gpol_Mn2.opt
  Mn  -0.28956393788125      3.21821981538085      6.11779252044279
  N   1.01469371608937      3.50229559421982      4.67303617851887
  C   0.84645260846289      4.59584494710040      3.86091418931972
  C   1.78727598593030      4.88883642383250      2.86148965412095
  C   2.88601018426350      4.04955936884109      2.67440375405211
  C   3.02417088404121      2.91346205752858      3.48767922838330
  C   2.07189243423620      2.67389806334912      4.47256312678106
  N   -1.21876314402945      4.81322427341339      5.03319009471451
  C   -0.38955704683860      5.35488338568654      4.09274522232196
  C   -0.74200556792530      6.52332277192680      3.39868896969138
  C   -1.97385930252795      7.12566053473358      3.65819386309298
  C   -2.83091908691079      6.54918828854746      4.60712794334221
  C   -2.40974591086642      5.39925085822190      5.27448029725358
  N   0.53372436369675      4.61132540517955      7.32626527630156
  C   -0.28082650228371      5.00499774680936      8.36352227516764
  C   0.08106930561883      6.07040658666880      9.20307518105035
  C   1.29887351103028      6.71882650178472      9.00809396371129
  C   2.14141741235112      6.28798027404098      7.96961227398322
  C   1.72123338887701      5.24493094403895      7.15206986205060
  N   -1.59011320811259      3.18458613590195      7.58148699241305
  C   -1.48433569034237      4.19626608885969      8.50981082734314
  C   -2.45603655811248      4.35742411251433      9.51030556002713
  C   -3.52967863097875      3.47189914216252      9.57671286692714
  C   -3.61327811874627      2.42676181644475      8.63882480302837
  C   -2.63298826699093      2.31383768199078      7.66060401049318
  C   -0.41907680855800      0.47912249635485      4.87583674078773
  N   -0.63171311308511      1.47106853287491      5.53566709756477
  S   -0.14005594221802     -0.84822198892055      4.01890831273251
  H   -3.80307025286258      6.98211726436985      4.82806837691747
  H   -3.03000995025053      4.91621499812372      6.02600299835859
  H   -4.28575670876433      3.58417380620995     10.34994737499031
  H   -0.06811685386958      6.95414721250591      2.66330112929639
  H   -2.63336063406046      1.52957984782783      6.90955366089531
  H   3.85154451691395      2.22097019579540      3.36016190049192
  H   1.64816481941597      5.75598438566855      2.22231871499588
  H   -2.36411384971021      5.16225915779910     10.23450097101761
  H   2.33237803211424      4.88871910805566      6.32824421162521
  H   -0.58064475567918      6.37902736581653     10.00764714598627
  H   1.59259216520799      7.54043512067262      9.65686976616310
  H   -2.26396857166301      8.02839324822403      3.12561305160438
  H   -4.42719717103047      1.70730988993072      8.66601726026151
  H   3.10581431940310      6.75657272007881      7.79267007919466
  H   3.61440391837903      4.26714382651048      1.89708394686767
  H   2.12274401826661      1.80639399292281      5.12469832571596
