50
Coordinates from ORCA-job BPYMNA-CH3OH_1_2_tpss_d4_lanl2dz_631gpol_Mn2.opt
  Mn  -0.06524763322818      3.67270874852476      6.18962886028320
  N   1.28127134500326      3.86851734335956      4.76192944643115
  C   0.82721314845161      4.49244340062109      3.62882169951717
  C   1.61213184405021      4.55955777860774      2.46845679395144
  C   2.88908758168487      4.00124150248179      2.47172763938783
  C   3.35748037958407      3.38532134471759      3.64282086757589
  C   2.52602339333453      3.33153962442383      4.75802885199614
  N   -1.02565963546797      4.91281223071454      5.04078957963632
  C   -0.49867120593491      5.07990916420016      3.78492076448443
  C   -1.19364384756526      5.78400445676618      2.79222380721002
  C   -2.43491414047017      6.34464907595273      3.08844504527204
  C   -2.95305554506468      6.19716965252523      4.38378440822493
  C   -2.22395241785798      5.47686567557879      5.32551100902483
  N   0.54240869301443      5.11580709986476      7.37372543630108
  C   -0.17658223225660      5.30207631488072      8.53090455215225
  C   0.18249945479772      6.28711741991134      9.46331718163578
  C   1.29046441683253      7.09693643318141      9.21736153621721
  C   2.01805607355302      6.90567108513976      8.03160700231752
  C   1.61264209985914      5.91744034891369      7.14030472977540
  N   -1.41192972928362      3.50743515347056      7.60951626405317
  C   -1.30595381089200      4.38765282676141      8.66057718337931
  C   -2.21778317268366      4.36634397287832      9.72655570400909
  C   -3.25749729725010      3.43673186733617      9.72291167591339
  C   -3.36420478663429      2.54380488763384      8.64326600952419
  C   -2.43101392761313      2.60701938323549      7.61279953416647
  C   -1.14248732884699      1.85605716380211      4.07241165609324
  N   -0.75897806598251      2.14537526324170      5.18366653832704
  O   1.09737910145953      2.18725774148666      7.05618819915417
  S   -1.66585053343119      1.44770982996223      2.60575350809234
  H   -3.91328019296749      6.62447132792774      4.66042937844726
  H   -2.59162438379524      5.32103220279904      6.33436627273885
  H   -3.97304574145077      3.40852562065969     10.54114426353101
  H   -0.76800251978493      5.88465862681874      1.79795471973502
  H   -2.45759930944036      1.94762011884613      6.74973750540142
  H   4.34703795732409      2.93816847335642      3.68898741453481
  H   1.22474238068553      5.04338691422010      1.57641551464939
  H   -2.11466009688643      5.07313467766801     10.54558561993609
  H   2.13855988984294      5.73890071086594      6.20761722551075
  H   -0.40031357895387      6.41239503818999     10.37187284526879
  H   1.58097694721665      7.86350331850285      9.93156670265068
  H   -2.98913622075183      6.88687239049078      2.32631767163720
  H   -4.16146779400804      1.80634328576741      8.59820635511271
  H   2.88453021931647      7.51812603106640      7.79615213289535
  H   3.50896004762981      4.04263145142927      1.57944359126500
  H   2.82212242599394      2.83783683027516      5.67898107522453
  C   1.06155322241954      1.83627269803655      8.46654253467514
  H   1.39283417208621      2.72534797374073      9.00717673883262
  H   0.04753864400591      1.56105689476857      8.77578428498700
  H   1.75728403664713      1.00893905797861      8.64220400805435
  H   0.69202767370909      1.46454956641738      6.51522866080447
