50
Coordinates from ORCA-job BPYMNA-CH3OH_1_4_tpss_d4_lanl2dz_631gpol_Mn2.opt
  Mn  -0.09200348199207      3.47197556069050      6.24457404680546
  N   1.17717593110116      3.83325521400577      4.70538822754595
  C   0.77021658107011      4.66110614180273      3.69541737744545
  C   1.60952439357355      4.91065805183696      2.59910323139724
  C   2.85745546101878      4.29182837024111      2.52281090076291
  C   3.25027605059746      3.42402059849326      3.55090472023681
  C   2.38500443593311      3.22327576990566      4.62351000329295
  N   -1.23814095009089      4.87373998145889      4.96945545479727
  C   -0.58558676775589      5.22517959300525      3.83096408150684
  C   -1.19644240140949      6.03418886579123      2.85983211860881
  C   -2.50669454604006      6.47048732960259      3.06547632075415
  C   -3.17868469279492      6.09045518687165      4.23439024310235
  C   -2.50222678660323      5.29343580959669      5.15982708717624
  N   0.61585236544860      4.93119531692011      7.40176022221109
  C   -0.22005609210993      5.31389363207690      8.43280290256162
  C   0.09840103122571      6.41222418642799      9.25078411916154
  C   1.28946279655853      7.10196271053525      9.05033271394297
  C   2.15675198677660      6.67838146499377      8.02399546349073
  C   1.78287371120824      5.60740066736992      7.22494061398002
  N   -1.42422587876046      3.41029850347548      7.69292001390569
  C   -1.37971965044745      4.45869109638971      8.59175444433881
  C   -2.37784510300956      4.60673667513870      9.57075646144217
  C   -3.40930166227020      3.67655938072852      9.65285509456823
  C   -3.43136504000440      2.59722433962945      8.74561151749472
  C   -2.43431682510199      2.49927904391244      7.78583930587172
  C   -1.06613690338829      1.72607029635775      4.20661921667436
  N   -0.75035939833105      1.85023172153486      5.37354856809798
  O   1.41238815831084      1.86488479300338      7.15028185955677
  S   -1.47905451582540      1.56095606735794      2.66534424983264
  H   -4.20217165445365      6.40233530708600      4.42603522448502
  H   -2.97340015770954      4.96944645268573      6.08526158659460
  H   -4.18395608153280      3.78066127628874     10.40867684718393
  H   -0.66940238272870      6.31060246641748      1.95118383744658
  H   -2.40079720094676      1.70511427906989      7.04532642713553
  H   4.20820227215173      2.91150615098766      3.52681800295303
  H   1.28510611597458      5.57778235302372      1.80636499702651
  H   -2.33725777089817      5.44304575468061     10.26358701310056
  H   2.40944513717873      5.26336675498015      6.40794541108417
  H   -0.58108082493975      6.70997091094888     10.04491407096799
  H   1.54690678407637      7.94952421077167      9.68071388397774
  H   -2.99822521948640      7.09157084154775      2.32018449200568
  H   -4.21681330093333      1.84689638919088      8.78002617636513
  H   3.10273896670949      7.18099026091784      7.84087081143637
  H   3.50930366663378      4.47786663713479      1.67245748883629
  H   2.62821302894316      2.56808503950307      5.45646466958184
  C   1.48736219020970      1.70415931840912      8.58692878467904
  H   1.98876990905728      2.59952647926691      8.96270137580787
  H   0.48516616116489      1.63219726387776      9.02896856613663
  H   2.07804862859137      0.81536617483536      8.83959384667807
  H   0.89888952605059      1.12133930922115      6.76284590595327
