45
Coordinates from ORCA-job BPYMNA-oxo_1_4_tpss_d4_lanl2dz_631gpol_Mn2.opt
  Mn  -0.10115999804430      3.25345574488291      6.28824718242563
  N   1.25549402926659      3.54301561649495      4.84938581947517
  C   0.93833129822477      4.38132186835832      3.82080034212052
  C   1.81706345255798      4.53788910606118      2.74105423565176
  C   3.01562522364095      3.81901406308683      2.72232746357834
  C   3.31497234550971      2.95186690860986      3.77998392350302
  C   2.40477936546490      2.83486582834689      4.83100353328392
  N   -1.04995117720458      4.76225875835549      5.08644103532728
  C   -0.36369414498491      5.06278185569473      3.95066311480540
  C   -0.89033813547541      5.93979373068519      2.99223109541818
  C   -2.14762029939564      6.50869876064116      3.20812793626407
  C   -2.85008757295105      6.18821978295120      4.37530843457292
  C   -2.26203351236494      5.30887138703742      5.28717449723833
  N   0.53632222635996      4.80386283183745      7.45809214504362
  C   -0.22184249003047      5.03245394386476      8.56795498838007
  C   0.11714332465314      6.04224305800628      9.47861553881225
  C   1.25390536039652      6.82004954243522      9.24693066001481
  C   2.02792562700673      6.57009033956493      8.10821511945159
  C   1.63384645168265      5.55163701053404      7.23903900446719
  N   -1.51751658855997      3.23313625012980      7.69717241282166
  C   -1.37640469334399      4.13235726163043      8.71192885563259
  C   -2.27353681231798      4.14229952001854      9.78714157831828
  C   -3.31317837672232      3.20820333543859      9.81902897673328
  C   -3.43392697164569      2.28289635178058      8.77580455802143
  C   -2.51310446050880      2.32376524271182      7.72716986617085
  C   -1.26244088228309      1.87231706969108      3.99542044576820
  N   -0.98634935427305      2.01588960609301      5.16282441391054
  O   0.86877504765573      2.18875024125233      7.12237831195988
  S   -1.61738804833436      1.66777958866176      2.44115689822451
  H   -3.83458337403499      6.60227236678163      4.57629392444900
  H   -2.76697099291941      5.01765082555390      6.20453391831418
  H   -4.01257078807510      3.19880167368057     10.65171757088326
  H   -0.33719689649439      6.16761145782326      2.08576723790270
  H   -2.53344846498573      1.63440246331559      6.88819819817082
  H   4.23134521342507      2.36818804131682      3.79292439513175
  H   1.56666004212025      5.20341960406185      1.92035248525236
  H   -2.15747562476282      4.85984467703849     10.59418913766349
  H   2.20636320221531      5.31031904722632      6.34910377456394
  H   -0.49408014839714      6.21376743373943     10.35988915274824
  H   1.53204136760792      7.60373811592534      9.94762381125267
  H   -2.57465468108182      7.18528888962263      2.47161474248985
  H   -4.22115361913199      1.53392319464701      8.76947820665831
  H   2.92418587540401      7.14603082946213      7.89436105503922
  H   3.70190992753239      3.92999698487224      1.88586511409954
  H   2.53841872759936      2.17835979007573      5.68816488798502
