88
Coordinates from ORCA-job BAYDIP-oxo_0_1_tpss_d4_lanl2dz_631gpol_Fe2.opt
  Fe  5.47325510301785     18.15518931984770     18.91013549189073
  S   8.95433301273749     18.01878748652617     19.10170081756987
  N   5.13487547903463     17.41119587972065     20.74734922957719
  N   5.58987885955942     20.01318601784732     19.68704982746801
  N   6.02794698081186     18.88584264161375     17.10585355426055
  N   5.57262264924457     16.27928207543637     18.17383364990005
  O   3.87027441433831     18.29853406215144     18.55962146963708
  C   4.94028986386760     18.12574327747187     21.90573804874263
  C   5.04770012190286     19.50569223998183     22.02643694282647
  H   4.87454382125373     19.93593731820914     23.00953333478267
  C   5.35452337115723     20.37982820944186     20.99161698808328
  C   5.46352396405508     21.81863026586398     21.14675831957590
  C   5.77053380515618     22.32112143735285     19.90339991733914
  C   5.31920778314254     22.55832547118468     22.44724716245360
  H   4.47601062393896     22.14639532093610     23.02218234103109
  H   5.06949840424152     23.60941812750204     22.24320207401170
  C   6.60120273561307     22.49935033644248     23.30866188737194
  H   6.46366558343594     23.04412564285728     24.25294986855446
  H   6.86659321006024     21.46006102362204     23.54352004452538
  H   7.44795308366481     22.94628169392260     22.77130829450610
  C   6.04158422013128     23.74633754285935     19.51068899012956
  H   5.57306334998085     24.42129262421285     20.24109699754734
  H   5.57019350797503     23.96572573010210     18.54070185207780
  C   7.55249744822532     24.06278132561638     19.42515270852601
  H   7.71760468509606     25.10692294120974     19.12535358940465
  H   8.03754665751089     23.90171886494083     20.39697038201431
  H   8.04755658284884     23.41043419863475     18.69340864832074
  C   5.84440695234911     21.18183952576036     19.00720027511206
  C   6.13934888709806     21.27704767376249     17.65265636734587
  H   6.30976613516498     22.27105710306229     17.24735604158264
  C   6.23230314871474     20.20594742099346     16.77346806054025
  C   6.56859298800768     20.33021966445470     15.36809885015405
  C   6.56700839427564     19.05394968630739     14.85233836115843
  C   6.90717836946614     21.61968215687179     14.67396270990403
  H   6.22027257993889     22.41509017872798     15.00082127572295
  H   6.75191299687455     21.50445050659116     13.59169688560412
  C   8.36392451857882     22.06718731379964     14.93379935394808
  H   8.57893356625261     23.01755664464489     14.42597788269261
  H   8.54457875937518     22.20062269667901     16.00879896052106
  H   9.07211808181355     21.31199478140823     14.56802422033018
  C   6.90181902822792     18.60804430609931     13.45660084846292
  H   6.75287105468949     19.44519997966608     12.75985039802472
  H   6.20877349954430     17.81445507731655     13.13817837655943
  C   8.35518827989990     18.09581467844822     13.33311810121861
  H   8.56947989659976     17.76627144083444     12.30708044260934
  H   9.06723987046002     18.88872500048294     13.59746103187985
  H   8.52901094071950     17.25102725686259     14.01269318831161
  C   6.22895694209936     18.16763870608146     15.94889328255440
  C   6.12426041052666     16.78735870736260     15.83379575583404
  H   6.30341788707101     16.35406090332455     14.85310229579002
  C   5.81124432790853     15.91470664889506     16.86886028190037
  C   5.71278591218707     14.47501453527633     16.71447516645491
  C   5.41876557529224     13.96952396671288     17.96007315217937
  C   5.33947274105200     15.10818819189133     18.85608014525968
  C   5.06463056015868     15.01442964068771     20.21437343607760
  H   4.91426780420521     14.02006893496412     20.62687722973143
  C   4.95506986769072     16.09047359787481     21.08637421489387
  C   4.63073905707464     15.96220658919858     22.49594081472801
  C   4.61987259425420     17.23810526942601     23.00887933737791
  C   5.84770302337496     13.73684755163824     15.41227388951890
  H   6.09854162901862     12.68535190431570     15.61319255922987
  H   6.68705481066572     14.14841260717467     14.83081050862058
  C   4.55928931204664     13.79814473555979     14.56055812502319
  H   4.68988167047112     13.25536723828585     13.61410552697560
  H   3.71676834952014     13.35052213899040     15.10354392059682
  H   4.29207248518151     14.83795037209046     14.33104820369098
  C   5.15361603228128     12.54346723284476     18.35319920772596
  H   5.63103606969122     12.32358945726929     19.32048518249605
  H   5.61989771010575     11.87046297650417     17.61940264529849
  C   3.64391494000249     12.22464258019412     18.44785018756829
  H   3.48280470522853     11.18023823240097     18.74891498004368
  H   3.15275879845918     12.87704934667015     19.18180352367265
  H   3.15242188057849     12.38512830254039     17.47937908903942
  C   4.30784035017309     14.66993878419700     23.19240456651599
  H   4.46421704225760     14.78924661252125     24.27424871910065
  H   5.00272701251234     13.88090782955653     22.86613874291832
  C   2.85543676342195     14.20624627271734     22.93728678488382
  H   2.65253037675832     13.25480283615317     23.44818295531858
  H   2.14088352448563     14.95511719802961     23.30298134406589
  H   2.67245375871379     14.06949956879689     21.86331604735689
  C   4.28539810294841     17.68402791608733     24.40464992181738
  H   4.97154331737128     18.48509343561577     24.71988079221485
  H   4.44489849767450     16.84954179927745     25.10248974243625
  C   2.82747749788614     18.18212188196630     24.53191122890122
  H   2.61383693130356     18.51185031454999     25.55809567773608
  H   2.64225853048056     19.02256817266498     23.85027736907474
  H   2.12312019078689     17.38142405678315     24.27152128873735
  C   7.39892573702628     18.03883878462511     19.13836809282663
