88
Coordinates from ORCA-job BAYDIP-oxo_0_3_tpss_d4_lanl2dz_631gpol_Fe2.opt
  Fe  5.47645983872998     18.15389248974816     18.91389732982827
  S   8.96741840209373     18.01203309107747     18.99007824128737
  N   5.13836554781093     17.40988670971193     20.75045076396906
  N   5.59774078946244     20.01091815280568     19.69160505857067
  N   6.03107450408795     18.88420620804892     17.10898753586659
  N   5.57316351194246     16.27742408672961     18.17658308781150
  O   3.87125403843826     18.30136354116533     18.56610462422520
  C   4.94369770788887     18.12415515143997     21.90897952253085
  C   5.05463698149942     19.50380998170465     22.03044756124133
  H   4.88080566860685     19.93388797599133     23.01349452513405
  C   5.36140429656164     20.37815805284675     20.99570794965630
  C   5.46771996921824     21.81739897397709     21.15039315502817
  C   5.77201302442952     22.31989778644024     19.90648745153552
  C   5.32178996332323     22.55746447836421     22.45026034425085
  H   4.47958683448212     22.14438345923795     23.02595532989685
  H   5.06927355971423     23.60788241715077     22.24623636773479
  C   6.60371841753025     22.50162872511880     23.31202644529031
  H   6.46538647368322     23.04673426103642     24.25591401652351
  H   6.87065685607160     21.46294719603838     23.54783639867247
  H   7.45019555092779     22.94914253845544     22.77476185532481
  C   6.04101968874581     23.74514783229753     19.51316180838539
  H   5.57364056378565     24.41977315516951     20.24474694943657
  H   5.56720877657531     23.96602246309163     18.54466660174045
  C   7.55142367209439     24.06275585652068     19.42504022440747
  H   7.71521835839459     25.10739080033468     19.12636878188918
  H   8.03877429283791     23.90088614448308     20.39556560786683
  H   8.04603171627406     23.41197793245516     18.69161714663510
  C   5.84759616077741     21.18007007380034     19.01084277848288
  C   6.13954355149866     21.27556712675356     17.65547692895249
  H   6.30630262897161     22.26998710391597     17.24962654345450
  C   6.23199743971113     20.20502797692941     16.77559699914318
  C   6.56613123518773     20.32911403070031     15.36997376061956
  C   6.56724281559912     19.05242407499255     14.85471927198883
  C   6.89957457753051     21.61917159169385     14.67450895684014
  H   6.20928040802600     22.41184761504418     15.00061101652435
  H   6.74505258263584     21.50233503814160     13.59234483192694
  C   8.35450520339064     22.07310085666900     14.93301888303030
  H   8.56519689990971     23.02336480121956     14.42331508824814
  H   8.53612264960536     22.20917889643203     16.00746785772863
  H   9.06538394639258     21.32019110293650     14.56776868503018
  C   6.90150612502188     18.60691340208843     13.45880552219864
  H   6.74815483856975     19.44269750870561     12.76145850733510
  H   6.21145039087509     17.81016758030645     13.14219863450389
  C   8.35671595915423     18.10031331024192     13.33373397262902
  H   8.57098496406908     17.77021804283639     12.30793089938117
  H   9.06617075331459     18.89613058127384     13.59609667353001
  H   8.53466935781475     17.25704157919802     14.01408695143192
  C   6.23230792331001     18.16572427876303     15.95166425957400
  C   6.13075867953047     16.78504123314389     15.83784808686349
  H   6.31168504167240     16.35143242655657     14.85761725145209
  C   5.81564564687891     15.91222860040389     16.87235568770384
  C   5.71703708091066     14.47246809505800     16.71803054690343
  C   5.41815545579419     13.96757186778600     17.96259851833285
  C   5.33692479661147     15.10654892837140     18.85825648081585
  C   5.05902447778337     15.01373324311282     20.21598274221565
  H   4.90489184023892     14.01976008042683     20.62797364630812
  C   4.95189245945221     16.08987441001945     21.08839644012983
  C   4.62526831909557     15.96165115383525     22.49773382417505
  C   4.61870310708574     17.23697530706893     23.01145162701779
  C   5.85668400960749     13.73418856328877     15.41642891649670
  H   6.10634566002976     12.68258566752449     15.61826492953344
  H   6.69838500413430     14.14542286637990     14.83829315917215
  C   4.57165331376968     13.79538234870330     14.55967589439128
  H   4.70579752071074     13.25231676098978     13.61397705817676
  H   3.72714512720076     13.34796962240708     15.09964507548626
  H   4.30506813164343     14.83503107164834     14.32883698288426
  C   5.15084035033033     12.54185069122872     18.35553697955956
  H   5.62617972946216     12.32210059441280     19.32377449792630
  H   5.61779690351547     11.86786411717166     17.62311584647327
  C   3.64069592143865     12.22432815885818     18.44710921018810
  H   3.47809302109264     11.18016037443131     18.74799370788766
  H   3.14813868412482     12.87719632850288     19.17961906092103
  H   3.15172377258102     12.38482417451948     17.47741471080821
  C   4.29727001991649     14.67000403023626     23.19297758428904
  H   4.45322095458805     14.78769521390607     24.27496618104924
  H   4.98959310708513     13.87881416206441     22.86657379470966
  C   2.84365710128421     14.21127520753462     22.93581432383614
  H   2.63709760061185     13.25962490980792     23.44476063766728
  H   2.13092838441920     14.96162215697414     23.30191867613818
  H   2.66161198700188     14.07687492834617     21.86142936008916
  C   4.28427342077205     17.68333171427442     24.40710667749917
  H   4.97332487040479     18.48116912857138     24.72420173960721
  H   4.43921047561717     16.84770631443148     25.10452967339614
  C   2.82829153603152     18.18738622360127     24.53282692030922
  H   2.61485638254982     18.51763229983102     25.55884034193134
  H   2.64720174285146     19.02877597037048     23.85135524483370
  H   2.12088039638402     17.38975396902149     24.27144315208302
  C   7.41647854921037     18.03257105109306     19.10140310344309
