93
Coordinates from ORCA-job BAYDIP-CH3OH_0_5_tpss_d4_lanl2dz_631gpol_Fe2.opt
  Fe  5.91947010714500     18.07005276377912     19.05639136490821
  S   9.12554597063981     17.40024468655417     18.05812502406711
  N   5.32942751482017     17.32013896864785     20.89431574149720
  N   5.78023685596673     19.99278424060419     19.78564482577982
  N   6.05299282156858     18.88141763679941     17.10092819322561
  N   5.74423167924760     16.20106025450970     18.22800969026091
  O   3.65952433573391     18.27791676054597     18.48081908139925
  C   5.12824611010840     18.04137559496633     22.04366642560673
  C   5.25283766752166     19.43346732836828     22.13377584022907
  H   5.08156156500463     19.87068455130184     23.11609402911340
  C   5.55555299604294     20.33636666080786     21.10236166491535
  C   5.63242540357950     21.77761267337436     21.25668001298934
  C   5.90174972959212     22.29628465071130     20.00247385450713
  C   5.50219227242950     22.51812664588302     22.55826728586603
  H   4.67872007916095     22.09193511476590     23.15175652711014
  H   5.23214372688300     23.56585894161625     22.36216932183596
  C   6.80270969928532     22.47550963248129     23.39289997507930
  H   6.67789736942833     23.01722483989415     24.34070478567466
  H   7.08508608666932     21.43901301515750     23.61938794295827
  H   7.63236661707895     22.93334138553496     22.83857916912469
  C   6.12946590076571     23.73234137879273     19.62170806001252
  H   5.66030176425634     24.39153994498837     20.36625355590196
  H   5.63670720237198     23.94938739678481     18.66156869804851
  C   7.63160872636529     24.08115898031911     19.50999595837154
  H   7.76901199685996     25.13062633122776     19.21486936209997
  H   8.13813663263169     23.92316253210854     20.47115690955481
  H   8.12522978088180     23.44355671652990     18.76465025350039
  C   5.98411275860283     21.16620443445059     19.09488203781679
  C   6.21953584421808     21.25517140258395     17.71317866843599
  H   6.38408824228720     22.25564002335109     17.31679412495366
  C   6.28815334997055     20.20348108438317     16.79179165263074
  C   6.65603238342530     20.32873557623482     15.38786685266649
  C   6.66891121520754     19.05057180657402     14.86903495323848
  C   7.02218525625765     21.61596615979344     14.70325484055524
  H   6.33598993048366     22.41721781149469     15.01885019343187
  H   6.89107323246875     21.50715898951150     13.61679819955311
  C   8.47610960005866     22.05144261610546     14.99813128121423
  H   8.70825485067255     23.00405913289496     14.50194749931718
  H   8.63451771837332     22.17509541871173     16.07763880063725
  H   9.18663293535477     21.29399356913084     14.64240812698634
  C   7.05169069332016     18.60978852051385     13.48388986903315
  H   6.92137555123478     19.44435883844571     12.77985000419347
  H   6.37520301615765     17.80995169864156     13.14465574533808
  C   8.51100536011362     18.10409995237658     13.41011095538796
  H   8.75868878200064     17.76671278311901     12.39404276245397
  H   9.21031305499604     18.90278425954678     13.68961735916138
  H   8.66759256291571     17.26727334542927     14.10324825313768
  C   6.30518037573492     18.15638309254797     15.95830469909282
  C   6.24716170723078     16.75850323267098     15.87950131307647
  H   6.44798824131122     16.32191999298571     14.90275216018099
  C   5.97636933484122     15.85363825666191     16.91652017905707
  C   5.91855925891117     14.41058667441200     16.77171323982815
  C   5.64586695198123     13.89703352701779     18.02717620967061
  C   5.54442373686364     15.03044987238566     18.92839250664223
  C   5.26755827429889     14.94575272364943     20.30035584665236
  H   5.12795111260343     13.94268206761823     20.69985295145300
  C   5.13729534212171     16.00179911663918     21.21112807452145
  C   4.78928856710489     15.87021527589447     22.62390830316159
  C   4.78261310365695     17.14540803568618     23.14374980199721
  C   6.05795205793890     13.66577352878930     15.47393613097313
  H   6.33682042973718     12.62159750544391     15.67581712702814
  H   6.87949613140011     14.09721540357233     14.88163512783995
  C   4.75988857414578     13.69245290806620     14.63464627445154
  H   4.89338062068112     13.14780497314943     13.68972402312876
  H   3.93246753396301     13.22927823186745     15.18785738892422
  H   4.46862789753457     14.72519653205378     14.40206688772393
  C   5.42360644910630     12.46148149255808     18.41264018488120
  H   5.90654062485076     12.25375757836486     19.37960668111683
  H   5.90789976222201     11.80306380579783     17.67723628473973
  C   3.92331080167057     12.09986778521571     18.50730820504017
  H   3.79183844346741     11.05122004000543     18.80800027140904
  H   3.41437232030675     12.73792373429401     19.24186101890776
  H   3.42731922194621     12.24628936628032     17.53878257397185
  C   4.44498391090380     14.57888119270228     23.31104915435554
  H   4.57574712629989     14.69108637348525     24.39710851777486
  H   5.14366099685547     13.78842084309906     22.99570596587371
  C   2.99796072856439     14.12046145159946     23.01783174434074
  H   2.77917667896868     13.16613941514843     23.51685212539210
  H   2.27653170562781     14.86907646781878     23.37124691667965
  H   2.84180497496536     13.99066145131430     21.93853498161758
  C   4.43062916835767     17.58580556094009     24.53690232756403
  H   5.12483121258039     18.37367693653674     24.86837860423282
  H   4.56094985723975     16.74596748038669     25.23444461554798
  C   2.98064186928661     18.11187103545560     24.63998091966349
  H   2.75315374459528     18.44283224927845     25.66287434112617
  H   2.82560121302293     18.95949561913154     23.95904375577545
  H   2.26532404653034     17.32601994565196     24.36338764055363
  C   7.88851125465143     17.77472447238806     18.95155834425265
  C   2.80070869357814     19.13682319492683     19.25345650370057
  H   1.80089313300805     19.18567598968276     18.79744566632052
  H   3.22096716586115     20.14579063235570     19.35297855043212
  H   2.73038274930440     18.67954861663038     20.24411708754763
  H   3.93853594400906     18.74486926748975     17.66152303799502
