87
Coordinates from ORCA-job BAYDIP_0_1_tpss_d4_lanl2dz_631gpol_Fe2.opt
  Fe  7.89812695690258     11.59370931404172      6.36792970127888
  S   11.02054030572688     11.16305870574602      7.09540511589983
  N   8.16006717976125     13.31737335643841      5.40914177690465
  N   7.45263713359193     12.60642750778521      8.02207059150431
  N   7.26420762159064      9.92120428227058      7.24014873985405
  N   7.96661545752641     10.63214209220932      4.62725553997017
  C   8.26324018326303     14.58157499785364      5.96469640884957
  C   8.02223050432015     14.88069306412026      7.29535165325201
  H   8.13465235910254     15.91600197312749      7.60744481971289
  C   7.63536508764793     13.95950600135277      8.25446133631057
  C   7.36450151557534     14.30120795713795      9.63576061898084
  C   7.01341746905669     13.13022708944937     10.26178643125462
  C   7.08896638908328     12.09167377360923      9.25503407988135
  C   6.82539900512256     10.75560408717585      9.50688119866462
  H   6.54144946224295     10.48079348613966     10.51971964577606
  C   6.91000026780670      9.74196591712776      8.56685882666387
  C   6.65376526033622      8.34730712944712      8.86359639755696
  C   6.88494811482794      7.65568100089995      7.69894253790347
  C   7.27002748910055      8.64192903071090      6.71004596069083
  C   7.58204761396365      8.33365105471261      5.39634190053251
  H   7.56700054783839      7.28579779633870      5.10730588908551
  C   7.88637537531597      9.26554311527876      4.41807281084614
  C   8.13794319104683      8.92515035619039      3.03287823825776
  C   8.38941337838458     10.10990413856305      2.38366247929410
  C   8.29898066800106     11.15094350524050      3.38712138199102
  C   8.53984489912558     12.49015116858530      3.12949840152194
  H   8.80354876761939     12.76694950372797      2.11176807418637
  C   8.48720946647469     13.49982793676956      4.07609047438304
  C   9.19431985767921     15.42144514759794      2.44442041910988
  H   8.96717472088575     16.49591456892612      2.38605200212399
  H   8.60721473132804     14.93989741610104      1.64745768946384
  C   10.70033110545256     15.20647898922377      2.16833351274568
  H   10.97646566502105     15.59896456480803      1.17983218478198
  H   11.30793119324289     15.71860221115647      2.92582539290686
  H   10.95635183209628     14.13927577113401      2.20316232904354
  C   8.87289481444374     17.02664739317482      5.24895897916949
  H   8.09524951853486     17.41412756708235      5.92515818840684
  H   8.77924168154384     17.59633497873964      4.31302489619627
  C   10.26452818288050     17.29413506220248      5.86751322224767
  H   10.40680781810822     18.36650379428515      6.05956685565674
  H   10.38251840557581     16.75202134337561      6.81484836662296
  H   11.05886645347007     16.95539598646763      5.18967110429988
  C   8.77351609911915     14.88985300849175      3.78535628179685
  C   8.63769757563857     15.56856902457758      4.97229244831740
  C   7.40620002898642     15.69085250193153     10.20928684459309
  H   8.28610530255127     16.23022858874328      9.82699001566290
  H   7.53356750168832     15.63170662172083     11.29941015861589
  C   6.12934340015735     16.50006761128374      9.88794344936825
  H   6.18958014508314     17.51249409958740     10.31077596226381
  H   5.98343264635516     16.58501376312509      8.80297698871032
  H   5.24394843049692     16.00256770289764     10.30512406320214
  C   6.67650100915363     12.91094150422248     11.71083195030602
  H   5.83853920896125     12.20292310018840     11.80216519744510
  H   6.32833868997751     13.85554647497926     12.15200982625959
  C   7.88313067131157     12.38578411538727     12.52190447479646
  H   7.60977550423018     12.22965038177694     13.57465611576953
  H   8.24574006697140     11.43350351246015     12.11273154928818
  H   8.71374323364972     13.10249146746088     12.48108722504643
  C   6.16932858884138      7.82157865298953     10.18555892954338
  H   6.70285531584925      8.32145654852080     11.00851322719596
  H   6.41448009325901      6.75275150047457     10.26503660565153
  C   4.64719858945785      8.00958640880234     10.37536446224435
  H   4.32318475016167      7.62287258816427     11.35151979878361
  H   4.37418500089843      9.07153373882553     10.31481788984200
  H   4.09289395062270      7.47767894570700      9.59091514958513
  C   6.71021780040435      6.18684200726844      7.43209423381097
  H   6.76900211170481      5.63605724984843      8.38168922779594
  H   7.53666765483326      5.81414765070921      6.80776656251718
  C   5.36465965138537      5.86450969887012      6.74246996242706
  H   5.26880412447535      4.78611186339747      6.55543497183647
  H   4.52281705851151      6.18304092167500      7.37107508240795
  H   5.28158227491435      6.39107765458808      5.78256719169343
  C   8.05287463262196      7.54068894775566      2.45384376860926
  H   8.51920036283771      6.81559516161341      3.13836012002473
  H   8.63392814591722      7.50062517888267      1.52136542980096
  C   6.59848374248749      7.10556804740941      2.16322243606755
  H   6.57015931345078      6.09074550168397      1.74272880992243
  H   5.99526745510584      7.11712449117332      3.08080060702257
  H   6.12720594884843      7.79014067458288      1.44592663643982
  C   8.64372734010210     10.33998044494862      0.92021469737539
  H   9.01745573579743      9.41152523816034      0.46526967049445
  H   9.43906092890452     11.08928811514677      0.78665537439393
  C   7.37657750738573     10.80057848559644      0.16469053836914
  H   7.59411551042742     10.96793076127666     -0.89934066706630
  H   6.58543559869071     10.04310100562439      0.24119349615643
  H   6.98604714536043     11.73485744257202      0.58969107187083
  C   9.49420650179188     11.37396745857171      6.74001598995740
