87
Coordinates from ORCA-job BAYDIP_0_5_tpss_d4_lanl2dz_631gpol_Fe2.opt
  Fe  8.15292969551939     11.55335692985626      6.38302205500834
  S   10.62070913633398     10.61293935709654      8.56176320471321
  N   8.28449001937359     13.34038185146681      5.37830736324963
  N   7.48944599972158     12.63534237109522      8.05910109643991
  N   7.30226522238080      9.86339912376422      7.23495900122914
  N   8.08167471450345     10.56004214250509      4.55109835963755
  C   8.29225824103565     14.60660296618425      5.92630985454730
  C   7.98275085022303     14.90111424108342      7.25887286521545
  H   8.03638492869140     15.94829261601378      7.55062293843210
  C   7.60753277142744     13.99188089346314      8.25117730962953
  C   7.31625775068913     14.33440921528992      9.63668813924422
  C   7.02422540124508     13.15110451270273     10.27853967454443
  C   7.14323186568950     12.10110892011587      9.27856075491536
  C   6.92303740174055     10.74019974850208      9.50995673316095
  H   6.65968959529085     10.45588283720042     10.52689800576843
  C   6.98351749214000      9.70549908283621      8.57122701906950
  C   6.72971821002989      8.30998474745812      8.86450437737494
  C   6.90438305080606      7.61834230788092      7.67942543674585
  C   7.26864843951931      8.59890127216195      6.67620730677609
  C   7.54164817787636      8.30591485222005      5.33646489686973
  H   7.46491300051324      7.26104661245971      5.04178603321246
  C   7.88543355065745      9.21837855280782      4.33565644682653
  C   8.08240704796531      8.89203268946451      2.92971074044051
  C   8.40518511300019     10.07294775911613      2.29806451803638
  C   8.40051818986784     11.10392237453496      3.32686301589858
  C   8.67677772602955     12.45597021938674      3.10803436138454
  H   8.93859255017576     12.73953000106569      2.09025090145196
  C   8.61857910898095     13.49356810321340      4.04572263970546
  C   9.29919752242840     15.42760641863393      2.41234492024806
  H   9.03960492008203     16.49353603565839      2.33888368945309
  H   8.75100765263802     14.91997424883561      1.60415784612173
  C   10.81801582446013     15.25659737710411      2.18173883230783
  H   11.11150357669539     15.64728244637648      1.19759625008841
  H   11.38767094400243     15.79363504736177      2.95144629899996
  H   11.10233610064122     14.19731780943595      2.23451618318876
  C   8.81933223819370     17.06135948242038      5.16771826290137
  H   8.00665798614761     17.42848522468391      5.81300717816810
  H   8.73032643747998     17.60582934072808      4.21682539432321
  C   10.17908971804152     17.40021150467628      5.82123463000931
  H   10.26938445750126     18.48075270475185      5.99879822080992
  H   10.28966285970283     16.87972044261004      6.78158302759471
  H   11.00790102770996     17.08530617215590      5.17379645813746
  C   8.85940215256971     14.89095350035448      3.74541666699906
  C   8.65383054848827     15.58799211630037      4.92158157289802
  C   7.29002921531154     15.72838302089299     10.19978870905376
  H   8.14658887291187     16.30436356832976      9.81724136036579
  H   7.41032849271890     15.68761528137574     11.29163235374796
  C   5.98059027143091     16.47507152160111      9.85798494942538
  H   5.99135476976337     17.49429816786796     10.26858596489429
  H   5.84140782193799     16.54035460168162      8.77077140932744
  H   5.11496828180060     15.94265382239750     10.27362536690045
  C   6.70225477966216     12.93522471191458     11.73145484616327
  H   5.89696316891340     12.19145946619008     11.83288560797266
  H   6.31517191398256     13.86716775139982     12.16724466199331
  C   7.93441716477651     12.46758322188787     12.53929265855395
  H   7.67413345477240     12.30364090510364     13.59426993874927
  H   8.33638317055196     11.53068278680929     12.13117217344371
  H   8.73228307545246     13.22030908905934     12.49149041808874
  C   6.29124043007948      7.77208589210173     10.19747664528175
  H   6.85057930029934      8.26985275272049     11.00417964130637
  H   6.53948374209139      6.70307161159546     10.26420388968604
  C   4.77589961419971      7.95828323101522     10.43960336530969
  H   4.48632671369872      7.56821691088522     11.42510080963417
  H   4.50172856078519      9.02040346178951     10.39185061586480
  H   4.19455062711489      7.42884001516303      9.67347189874532
  C   6.69871274787881      6.15166089911750      7.42337642912220
  H   6.78295328999059      5.59797952923945      8.36938221577690
  H   7.49545345522741      5.76853783379869      6.76773951094160
  C   5.32433327014534      5.85210874692240      6.78109634858517
  H   5.20501377270298      4.77547773560014      6.59740271457836
  H   4.50991328594370      6.18351528596855      7.43839964789683
  H   5.21727785777544      6.38103609308682      5.82493566976915
  C   7.88329485199553      7.53146601317242      2.32307039796377
  H   8.32572400934159      6.76146678129335      2.97401977626867
  H   8.42148073688576      7.47306768856025      1.36614863513955
  C   6.39138458175336      7.20049621402246      2.08948348666204
  H   6.27452601971793      6.19396377969104      1.66458689789333
  H   5.83076257043430      7.24654137099998      3.03255638681055
  H   5.93936682018571      7.92312586277864      1.39757497623204
  C   8.64186987975828     10.31346369106062      0.83333723023836
  H   8.94506290055936      9.37382666330184      0.34940375561656
  H   9.47967349851392     11.01477773537195      0.69734893907536
  C   7.39061422654163     10.87219669115446      0.11754627546259
  H   7.59248690391371     11.04429971391387     -0.94881637162494
  H   6.55205802131342     10.16863649143729      0.20260788859787
  H   7.07561857984552     11.82238885539975      0.56871062867068
  C   9.79680605910925     11.07664835929113      7.31042079403698
