88
Coordinates from ORCA-job BAYDIP-oxo_0_5_tpss_d4_lanl2dz_631gpol_Fe2.opt
  Fe  5.39830457573908     18.16069407929536     18.88710773904672
  S   8.87362240909477     17.87772534621346     19.54772236392292
  N   5.07503654242914     17.41404924535400     20.73587699067702
  N   5.54789436098744     20.02017129415427     19.67261733748294
  N   5.98704585850560     18.88942773790160     17.09421942831220
  N   5.54123560880354     16.28141584106339     18.16392796944453
  O   3.79038276679480     18.30198908753993     18.54244368249071
  C   4.93371651656132     18.11887199499181     21.91018885790063
  C   5.06889991228236     19.51364784870753     22.02087561697812
  H   4.92764273706877     19.94142612041060     23.01081657480789
  C   5.36193982329908     20.38950380965175     20.99068547918067
  C   5.49165840685228     21.82887514287805     21.14991929068379
  C   5.74589245732646     22.33555512666272     19.89969374809230
  C   5.41597754989381     22.55818504623671     22.46131040575652
  H   4.58446846729144     22.16281960003532     23.06497773700773
  H   5.18577026289280     23.61709045681420     22.27658165334763
  C   6.72803978721461     22.45736856338191     23.27244995586011
  H   6.63929844611885     22.99278530037032     24.22766722887785
  H   6.97773748601417     21.40937096700602     23.48496583701546
  H   7.56419654924854     22.89085571121707     22.70840662501251
  C   6.01835566037152     23.75829398542272     19.50064573950452
  H   5.58453101671680     24.43599820212535     20.24953276636541
  H   5.51293970273242     23.98606197852115     18.54956170987907
  C   7.52867550614437     24.05723381843835     19.35995922265944
  H   7.69417367923304     25.09843916093502     19.05092471485525
  H   8.04576039951095     23.89343812263214     20.31452021228576
  H   7.99093238069621     23.39756021058458     18.61348627540628
  C   5.77841979189291     21.19780693777373     18.99444091876782
  C   6.03123305286256     21.28988687578289     17.63485283209430
  H   6.17536004792581     22.28584747149588     17.22254905950694
  C   6.16152886196343     20.21156410991349     16.74560494715543
  C   6.51980282703328     20.33924034503043     15.36078474240244
  C   6.57211074787185     19.04731569996523     14.85379133456927
  C   6.83370862870441     21.63077019617501     14.65796144375052
  H   6.12618591729845     22.41454256907796     14.97012883031336
  H   6.68686418202090     21.50264447546270     13.57571134570669
  C   8.27751762574568     22.11698779704274     14.91894849276478
  H   8.47439687979479     23.06495007828677     14.39899853553015
  H   8.44965394971694     22.27004269651707     15.99308248691350
  H   9.00550642308157     21.37311652470864     14.56949239173871
  C   6.94990385280352     18.60263999609343     13.46818877864092
  H   6.79358224782602     19.43238581758892     12.76400577995823
  H   6.28439528800671     17.79082818919315     13.13511884155449
  C   8.41755824635256     18.12689315679654     13.37393531296111
  H   8.66192717596874     17.80164971332726     12.35303058290917
  H   9.10458042917905     18.93661219045922     13.65264825812098
  H   8.59993865618135     17.28695697724946     14.05785483023038
  C   6.23769166548565     18.17550735161096     15.94415370066491
  C   6.15448508719777     16.77571812857630     15.84411819283634
  H   6.36470213629268     16.34219147088729     14.86901976380299
  C   5.82974651001774     15.90259635755130     16.86662823676857
  C   5.74340778331318     14.45911578752633     16.71578314792761
  C   5.39103660095834     13.96125110426924     17.94555880411833
  C   5.27231725746001     15.10675401027844     18.83354476202916
  C   4.95281179664040     15.02061173577453     20.17934665512763
  H   4.77798018320451     14.02709095516286     20.58553416455271
  C   4.86686031517699     16.09501646558220     21.07809219195974
  C   4.57937525592576     15.96161658116463     22.47885327302696
  C   4.62562684652878     17.24484642050290     23.00713033665865
  C   5.94624244851968     13.71746800436964     15.42453275781433
  H   6.20241353908127     12.67067493309582     15.64157620525340
  H   6.80570162655284     14.13839834097004     14.88030899876330
  C   4.69633889924029     13.75777138793482     14.51589046859318
  H   4.87795835238517     13.21663127528306     13.57713942198423
  H   3.83757579378297     13.29713885724591     15.02111309448409
  H   4.42246543280078     14.79273077002970     14.27226390876350
  C   5.11478467514067     12.53765617416669     18.33904702316473
  H   5.56763783733652     12.32296113911685     19.31949077155270
  H   5.60003172746070     11.86100253803019     17.62138166092876
  C   3.60305915515217     12.21858808154532     18.39580534664297
  H   3.43548511895540     11.17517020683584     18.69612011609408
  H   3.09012521530872     12.87182580881082     19.11414214070493
  H   3.13756324217663     12.37533214571596     17.41404909667287
  C   4.24294694675439     14.67466634084164     23.17971986872516
  H   4.42374433542932     14.78862610028625     24.25834502146829
  H   4.91471996967343     13.87012028356761     22.84130805678419
  C   2.77698327214554     14.23927107055178     22.95466512589369
  H   2.56267901910645     13.29468886899657     23.47391609749500
  H   2.08476883264721     15.00493925582629     23.32844946022066
  H   2.57036539315801     14.10050519196721     21.88481720955977
  C   4.34780366794362     17.68265502506999     24.41848974624245
  H   5.05296719262986     18.47396408079351     24.71730801509319
  H   4.52689383851547     16.84102361300974     25.10309564932680
  C   2.90058835804479     18.19110659107836     24.60914591140273
  H   2.72664952544726     18.50526243931739     25.64781483314940
  H   2.69674097943584     19.04517535029586     23.94947014087149
  H   2.17966743911130     17.40148745818252     24.36045498395031
  C   7.33875302580667     18.00380668169002     19.27686073048138
