58
Coordinates from ORCA-job DABCEO_2_4_tpss_d4_lanl2dz_631gpol_Fe3.opt
  Fe  4.77352380903354      2.68619863922061     -0.25384266322540
  Cl  4.42953693695690      1.12990180231918     -1.76475101062143
  P   6.04047022413369      4.27581686231245     -1.47865593389837
  P   6.88022124786221      2.03601176939592      0.62685276225841
  C   5.63690293857332      6.06263522028201     -1.34228074294647
  C   6.01018524104169      3.86397615959577     -3.26532851233499
  C   7.79717594860810      4.12552779623881     -0.99884166465129
  C   8.79394811688766      4.91001790167873     -1.59046533045299
  C   10.14711730729403      4.75036479029712     -1.26254099181610
  C   10.51745754235161      3.76491877499352     -0.33609034376462
  C   9.52642343720128      2.95993685651653      0.24226174662574
  C   8.17112646766246      3.12984990219566     -0.06359676055628
  C   7.14554922670104      2.03165090257854      2.44384136527845
  C   7.31799601067987      0.35876993439882      0.02871233376121
  F   8.47711796453220      5.83997756826756     -2.51392344603496
  F   11.07082932992444      5.51331991898202     -1.83014962539967
  F   11.79363155034689      3.59077074133030     -0.02214355433685
  F   9.92065887692495      1.99530470963698      1.09782260078877
  H   5.59761438562913      6.36449073027895     -0.28890994427987
  H   4.67033661235637      6.27003879845349     -1.81673178782595
  H   6.40446819094220      6.65431715980070     -1.85419126226533
  H   4.99141714605804      3.92407400869402     -3.66211849291264
  H   6.37307829096618      2.83908732068667     -3.40042506192674
  H   6.65688630091639      4.56193231587530     -3.81227715185469
  H   6.54943463867239      1.23747376550481      2.90891284715051
  H   6.86043392335839      2.99941806015374      2.87296350082226
  H   8.20274962260552      1.84112728671613      2.66134500186523
  H   6.59529439226597     -0.38129542857627      0.38766845267151
  H   8.32159211669490      0.09275366402785      0.38439294237142
  H   7.29946519952397      0.35451823107523     -1.06671324306985
  P   3.55149911692693      1.56535546830286      1.44211804555810
  P   2.71845751305894      3.79589457444735     -0.66470750762240
  C   3.96801255377525     -0.21630625323699      1.53489471763711
  C   3.55802480084785      2.19401640167739      3.16946494211555
  C   1.80064447175016      1.68907886057370      0.93515849713146
  C   1.42898829351036      2.68083124767792     -0.00825035509499
  C   2.39759581123241      4.02121499465370     -2.45389864021217
  C   2.35691044063685      5.40959656959899      0.13891112943011
  H   3.97675294745290     -0.64018935793214      0.52439413261273
  H   4.95577318204957     -0.34611074525125      1.99314953940431
  H   3.23103040897052     -0.74572075846138      2.14819268186488
  H   4.54956346867141      2.09874992599323      3.62467950447462
  H   3.26059369139796      3.24915895042779      3.18483626678473
  H   2.83979893296067      1.61291872149058      3.76323685162082
  C   0.80074675272030      0.91119069700854      1.52868918482226
  C   0.07471870655847      2.84952880227561     -0.31585053188089
  H   3.04093302629568      4.81625196340381     -2.84993691025264
  H   2.60863481607575      3.08460530008523     -2.98220822329489
  H   1.35349553050084      4.30791417358430     -2.61853348312662
  H   3.03651047999667      6.19137628001889     -0.21599948865765
  H   1.32500029931846      5.70378054513448     -0.09504733240693
  H   2.46185471587373      5.31611608658346      1.22627877305540
  C   -0.55002596931969      1.05592728638868      1.18165851638118
  F   1.10558228174460      0.00971619705707      2.48345951643917
  C   -0.91694398574666      2.03494805529726      0.24939993391884
  F   -0.32449607543916      3.83038721371472     -1.14986467942989
  F   -1.47353034369725      0.29122924637175      1.74778834573129
  F   -2.19116886482903      2.20565339018323     -0.07510945642249
