64
Coordinates from ORCA-job DABCEO-CH3OH_2_6_tpss_d4_lanl2dz_631gpol_Fe3.opt
  Fe  4.73199106482635      2.97721696699199     -0.30793028120530
  Cl  4.44255699322262      1.37880406943038     -1.85995348868601
  P   6.37474064150465      4.35686173239323     -1.71125347153561
  P   7.00326102895191      1.94318676033156      0.49405855074792
  C   6.14712423108491      6.18167094404585     -1.62002762829375
  C   6.32137254993216      3.94532165934716     -3.50063022691632
  C   8.08667662565929      3.99398260315831     -1.17203165327013
  C   9.16312322968563      4.67543775015620     -1.75512581651506
  C   10.49574779156492      4.39089304684876     -1.43027047437060
  C   10.76550132712351      3.37205763354214     -0.51003787820976
  C   9.69848416798692      2.66738199679928      0.06416133606371
  C   8.35919383140427      2.96087041339188     -0.22681302005469
  C   7.38303510828189      1.75505980036265      2.28990011406518
  C   7.30898605653909      0.27539678715424     -0.22205103225594
  F   8.94345439286478      5.63228434589370     -2.68015034483717
  F   11.48764315324417      5.06463512978835     -1.99889888919063
  F   12.01762661879444      3.06413722236287     -0.19573999674117
  F   10.01706603777064      1.66022542763188      0.90331915750928
  H   6.26854529984873      6.52967415385844     -0.58884081273007
  H   5.13084907758450      6.42811517942966     -1.95415063595109
  H   6.86614176340542      6.70168586343535     -2.26207253540770
  H   5.32491406127610      4.17759532534691     -3.89726862476680
  H   6.50227065783458      2.87302611004039     -3.63483005302987
  H   7.07245529832673      4.52270982849611     -4.05286076319209
  H   6.62410455535066      1.10669714722856      2.74550778310099
  H   7.36066518028248      2.72701300515894      2.79416882272106
  H   8.36602333740056      1.29871333875316      2.44204642547961
  H   6.58036994806442     -0.44538800013336      0.16474507562241
  H   8.32122723196449     -0.06035545183852      0.03443485572505
  H   7.19933237769013      0.32305647852272     -1.31097926659058
  O   4.76836808850836      4.65870580085326      1.06822830169031
  P   3.45812018106127      1.51956399895350      1.43179310039332
  P   2.30966098196402      3.75125399657828     -0.79168812055070
  C   3.91769203622980     -0.25928286755260      1.35093736939209
  C   3.46696338150239      1.94608943758026      3.22719658752897
  C   1.68089942389966      1.60174453639074      0.96253800286401
  C   1.19646900856858      2.53727341671925      0.00230236632709
  C   1.97742672564401      3.72911739742535     -2.59931203384587
  C   1.69176924419441      5.39755461954721     -0.22551238774424
  H   3.93782487818037     -0.57734625580728      0.30221450571501
  H   4.91586554508124     -0.39525917821351      1.78601523531844
  H   3.21062225785424     -0.87964699596553      1.91052974512116
  H   4.48880041840894      1.89158595795530      3.62249076378994
  H   3.08829022715559      2.96529576970202      3.37324550073096
  H   2.83196556848846      1.25313699556857      3.79213473981170
  C   0.75476260323033      0.75209054359582      1.58242829365579
  C   -0.17478339825683      2.56187561194994     -0.28257815941696
  H   2.63145130460145      4.46152611321973     -3.09050641886153
  H   2.20353642126533      2.73464553556793     -2.99860535843599
  H   0.93411026855152      3.98699625220605     -2.80923255956177
  H   2.31633696605854      6.19633406069021     -0.64588496818041
  H   0.65670103596900      5.54676099484959     -0.55708935014228
  H   1.70785151124451      5.46750163179167      0.87040683040348
  C   -0.61176945397075      0.77062415502947      1.27138637811433
  F   1.15143796723806     -0.11888627347256      2.53451845141524
  C   -1.08378751780119      1.68674465381856      0.32549360370806
  F   -0.67370144394703      3.46314567365186     -1.15410160176856
  F   -1.44984686474324     -0.05869691144708      1.88083838573876
  F   -2.37525231177982      1.73961306324487      0.02455827896632
  C   5.86171223074274      5.09709613799028      1.93310361275316
  H   5.79723684693413      6.17981490330400      2.08029810052968
  H   5.81792580398975      4.57297933382524      2.89338740339569
  H   6.77985742045503      4.84316243158300      1.39758524027476
  H   3.91311900400524      4.90623819093722      1.47314493358519
