59
Coordinates from ORCA-job DABCEO-oxo_2_4_tpss_d4_lanl2dz_631gpol_Fe3.opt
  Fe  4.85416544345616      2.79508272400454      0.08509643249666
  Cl  4.49022184858297      1.16522014446482     -1.42548538949480
  P   5.99456406088172      4.23194572961350     -1.43318877972606
  P   7.01468542991958      1.95851194222216      0.55849844973087
  C   5.56661397972597      6.00436431810196     -1.27691422176739
  C   5.95483897481374      3.76627468802682     -3.20262970362702
  C   7.77240362799627      4.12994758810072     -1.01001094866673
  C   8.71945014798303      4.96738475475106     -1.61246341759904
  C   10.08950421663508      4.84729087844707     -1.33709571788944
  C   10.53283427439652      3.85184388981468     -0.45565461915085
  C   9.59367940276301      2.99086426569427      0.12799632167316
  C   8.22455237678448      3.12085032810898     -0.12855457129707
  C   7.26888254148712      1.92353347979894      2.37017220549115
  C   7.43980963265886      0.30618991640408     -0.09202714748281
  F   8.34388002781727      5.90772512196209     -2.50276885723213
  F   10.96039146961616      5.66236320793210     -1.91554190288495
  F   11.82485574172291      3.71979971275557     -0.19116638183931
  F   10.04393402206365      2.01335710723828      0.93837631859811
  H   5.52310195864672      6.26591309129109     -0.21327179347120
  H   4.60333275806718      6.21862804715102     -1.75277784807277
  H   6.33151480734493      6.61414817658973     -1.77005317411830
  H   4.94601098705917      3.82736651914421     -3.61970598481307
  H   6.31011102212188      2.73468514394485     -3.30367201760318
  H   6.61763356338071      4.44201054768697     -3.75976034582834
  H   6.62486259012317      1.16688693979273      2.83426341588139
  H   7.02541556185657      2.90984380693659      2.77971594630596
  H   8.31360644955440      1.67334815025479      2.59127846927143
  H   6.75342463057358     -0.44755697745810      0.31068874104033
  H   8.46843496467119      0.05587142240678      0.20071754003758
  H   7.35230082514118      0.30360083041732     -1.18378707834712
  O   5.16364153428105      3.88283109221121      1.31261873266885
  P   3.41017488036042      1.62457855120624      1.54782408855147
  P   2.77999212610163      3.78390115317999     -0.60832676090273
  C   3.91321457125911     -0.12989142520496      1.68808892954611
  C   3.39564641689201      2.32568269298419      3.23182008307246
  C   1.71547561821157      1.70020917973497      0.92298371825150
  C   1.42247922910636      2.69140091737301     -0.04321620345069
  C   2.52311279579161      4.01078458723344     -2.40625165066309
  C   2.41374062249684      5.37697330655613      0.22015014994135
  H   3.81832457737244     -0.61314514453653      0.70999022696341
  H   4.95182544897471     -0.20239592314912      2.03079296917996
  H   3.26952469181367     -0.63335306410669      2.42045771545873
  H   4.39522117122374      2.25671039026901      3.67638301408149
  H   3.10619373535514      3.38116234402411      3.19098442806843
  H   2.68142249056532      1.77110383438724      3.85579046381199
  C   0.68672191222843      0.91415705420472      1.44985567149874
  C   0.09065181109519      2.86558217997660     -0.43583601409640
  H   3.14637182032383      4.82812175642254     -2.78505007879721
  H   2.77080988937777      3.07867437243487     -2.92687286479809
  H   1.47551783042130      4.26557736717680     -2.59773587072643
  H   3.10052271310337      6.16486946397475     -0.10235859655946
  H   1.38480235666771      5.68206536056771     -0.01216279553779
  H   2.52048149437355      5.24865059012041      1.30333209699376
  C   -0.63812610130885      1.06483018452499      1.01678282203280
  F   0.94505229383688      0.00840748917493      2.41136095264439
  C   -0.93647643362875      2.05213016706200      0.06835102998883
  F   -0.26228762659068      3.84661507118682     -1.28865050630773
  F   -1.60026026775262      0.29950595816980      1.51206365050291
  F   -2.18578893979822      2.23106499724099     -0.33714334103262
