58
Coordinates from ORCA-job DABCEO_2_2_tpss_d4_lanl2dz_631gpol_Fe3.opt
  Fe  4.78069244837875      2.81693896820152     -0.11275632216709
  Cl  4.48830897609573      1.27064469895677     -1.64472301790124
  P   6.05220288815545      4.27037093410282     -1.46499724315665
  P   6.88737956731467      2.06156888612820      0.63129311974876
  C   5.67028003412069      6.06524654254656     -1.32704035640991
  C   5.99014504597052      3.86852601301482     -3.25176265251582
  C   7.81752441868068      4.11339049278637     -1.02069589121666
  C   8.81371469270135      4.88470967548533     -1.62954095414446
  C   10.16862358482424      4.71436985788922     -1.31456245004155
  C   10.54006611580341      3.73405907461219     -0.38236085372027
  C   9.54853948758899      2.94402202628895      0.21524162407511
  C   8.19241651100448      3.12398283865578     -0.07967097455464
  C   7.17277158711267      2.06994764427397      2.44813717334802
  C   7.30123514364650      0.37228239829587      0.05489411287202
  F   8.49485632360318      5.81226870434794     -2.55468574131214
  F   11.09405303676657      5.46322410399122     -1.89831147893312
  F   11.81839369520954      3.55240435728395     -0.08084380825897
  F   9.94224187686984      1.98541842033346      1.07780185250050
  H   5.65717686794058      6.37408160822368     -0.27480568128561
  H   4.69451894993799      6.28012810193949     -1.77921834292662
  H   6.43140376407330      6.64828632488751     -1.85837888203450
  H   4.96883780848868      3.95340010315047     -3.63649317842302
  H   6.32996354493908      2.83729075875868     -3.39824246881465
  H   6.64470598341586      4.55580242589387     -3.80208281163260
  H   6.55900452315452      1.29805175282301      2.92779768808829
  H   6.91959904679213      3.04906684769933      2.87219235935775
  H   8.22659054003675      1.85330185992436      2.65804918591093
  H   6.58615319173259     -0.35882824563203      0.44530209261806
  H   8.31165343766097      0.10919116697995      0.39211404930684
  H   7.25781868809096      0.34679244458882     -1.03956044886150
  P   3.53288901653167      1.56530691934829      1.44076694247312
  P   2.70600834620394      3.79332757012157     -0.65055952824995
  C   3.97028010725242     -0.21007414121073      1.53100084596654
  C   3.52015899765157      2.18293995548884      3.17451593949863
  C   1.78594781253154      1.67163735096113      0.92117492873985
  C   1.41533671700823      2.66865218047340     -0.01660645730518
  C   2.40125194132629      4.02818944198177     -2.43991667537624
  C   2.33074800379855      5.40522790580533      0.15540214739948
  H   4.00980871809935     -0.62771126249150      0.51868870515275
  H   4.94725849605097     -0.32870500412551      2.01448817614145
  H   3.22494375583765     -0.75328292961292      2.12134170268478
  H   4.51286488981430      2.10435687703435      3.63119928625537
  H   3.20023752972035      3.23148699455220      3.19810420891150
  H   2.81232156922363      1.58394102142771      3.76322469927758
  C   0.78724707303708      0.88144158079680      1.50002118348582
  C   0.06262696002326      2.83103604946644     -0.33431735886484
  H   3.03644349338483      4.83572521946243     -2.82304553537817
  H   2.62848692765424      3.09897124089936     -2.97449391284461
  H   1.35477535422091      4.30116211537606     -2.61164488872767
  H   3.01479936212752      6.18825702020731     -0.18923047228823
  H   1.30166132731388      5.70027578150960     -0.09041435469469
  H   2.42004551912904      5.30982695680031      1.24415643673164
  C   -0.56144855970196      1.01978570660691      1.14254532426523
  F   1.09085120542671     -0.02545250573226      2.44994322138559
  C   -0.92752921713623      2.00431736721463      0.21565064586095
  F   -0.33629540701179      3.81621587334562     -1.16330960606603
  F   -1.48460895546187      0.24429351239274      1.69452988207400
  F   -2.20038276416697      2.16891041546791     -0.11760518602397
