64
Coordinates from ORCA-job DABCEO-CH3OH_2_4_tpss_d4_lanl2dz_631gpol_Fe3.opt
  Fe  4.78039987024838      2.71722964114230     -0.21845795661887
  Cl  4.41420069920210      1.12023666375440     -1.77676196465857
  P   6.05148998617862      4.13498306903377     -1.63779880596714
  P   6.89418430743958      1.88805884541131      0.48369145020129
  C   5.63438633184270      5.92521914569818     -1.63337890022663
  C   6.04777828727035      3.63188221995241     -3.40030718673078
  C   7.81170907761608      3.99679663735697     -1.13682210090111
  C   8.81325411074237      4.76649092008423     -1.73989587930279
  C   10.16775460914024      4.60156344844060     -1.41918215747974
  C   10.53717226218441      3.61755195193304     -0.49263062926824
  C   9.54358061548182      2.82021411950658      0.09260893792844
  C   8.18611994675800      2.99928223793105     -0.19752803483894
  C   7.19951496037084      1.76256223425823      2.29087460669837
  C   7.30767366909894      0.24155725367898     -0.20680930757176
  F   8.50250771797109      5.68807958841188     -2.67420111300307
  F   11.09253781127746      5.35702504053133     -1.99714526546038
  F   11.81480759906845      3.43449520450930     -0.18588187017967
  F   9.94248676743840      1.84851609842633      0.93850248143598
  H   5.51632707365790      6.28606193865945     -0.60711559707817
  H   4.69032193123130      6.07387176530739     -2.17248696084075
  H   6.41301359244202      6.50800336512769     -2.13686784279264
  H   5.03167479052133      3.67580109109160     -3.80741613423882
  H   6.40418809402822      2.59939407929374     -3.48196881222164
  H   6.70187360316216      4.29892714372546     -3.97601228218235
  H   6.60184704154905      0.93783465385634      2.69871390057295
  H   6.90988319474969      2.69169943006717      2.79109887407885
  H   8.25590681861482      1.55534546026923      2.49195037960550
  H   6.58466791768932     -0.50683765823663      0.13522154286152
  H   8.31686273180143     -0.05271977011776      0.10844053636055
  H   7.25840404903871      0.28878110070401     -1.30002927121490
  O   5.02725235199177      4.36974203474174      1.39899942393162
  P   3.52265567861391      1.44008519663885      1.35189697124199
  P   2.68122568812560      3.70436875487378     -0.77497668864663
  C   3.92608102249884     -0.34868682098828      1.34896259327207
  C   3.51003674282782      1.92229511156733      3.13014818289405
  C   1.76899479766362      1.59379545156413      0.84734798169665
  C   1.39717996332431      2.59378695207429     -0.08862847427820
  C   2.36900702242799      3.83519299057390     -2.57668451531284
  C   2.25309819320315      5.35909294402832     -0.09011691449442
  H   3.94677957490866     -0.71489173530068      0.31666589309700
  H   4.90919722968913     -0.50640916435263      1.80964645453350
  H   3.18031983405249     -0.90842621072915      1.92302767123127
  H   4.52052573708414      1.88696160017350      3.55255635559701
  H   3.10570073075621      2.93489115632183      3.25169094624066
  H   2.86651410951738      1.23159052757106      3.69014789514025
  C   0.76799963416831      0.80469303127574      1.42477974388372
  C   0.04284615705684      2.75578868914158     -0.40131877359891
  H   3.01118669051521      4.61430167138325     -3.00567566459963
  H   2.59290709562053      2.87595072303810     -3.05602715275177
  H   1.32426893946105      4.10524794937017     -2.76268348154001
  H   2.97960522275484      6.11153241023673     -0.41636225956831
  H   1.25311963719777      5.65391582804674     -0.43462246178673
  H   2.24030806228090      5.32718992855709      1.00633266930658
  C   -0.58229578067250      0.94967125308266      1.07823022479749
  F   1.07259168897614     -0.11615769400006      2.36273423526810
  C   -0.94923791245758      1.93637719326980      0.15473377335761
  F   -0.35693105257735      3.73437979959007     -1.23958180927349
  F   -1.50537777945286      0.17565588118753      1.63432745225172
  F   -2.22361871992197      2.10618971167731     -0.17319030503687
  C   6.08784449959022      5.23826423648688      1.90173195941932
  H   5.78380919536287      6.28833198871667      1.82589299817016
  H   6.32336837213543      4.98997419825179      2.94263505640737
  H   6.95563367179364      5.05186099388659      1.26580999840127
  H   4.23299423366743      4.50285649823453      1.95185538378190
