64
Coordinates from ORCA-job DABCEO-CH3OH_2_2_tpss_d4_lanl2dz_631gpol_Fe3.opt
  Fe  4.79281562894543      2.87148984907287     -0.06136161217830
  Cl  4.45603835190209      1.29229233550727     -1.61865765964517
  P   6.05131359723267      4.13535463689045     -1.59590932970130
  P   6.87839345240926      1.92442192695053      0.48692246154111
  C   5.66802163192063      5.93563964231809     -1.63574995648018
  C   6.01301006524842      3.61485620324961     -3.35231188001108
  C   7.82322609513518      3.99328642990457     -1.14368560533030
  C   8.82610528951122      4.74022584824454     -1.77187423388645
  C   10.18258227739613      4.55044235850350     -1.47365682347514
  C   10.55063826568621      3.56659582576876     -0.54596793698233
  C   9.55411338149778      2.79203491298598      0.06424645402200
  C   8.19614716314106      2.99620455057001     -0.20456753735204
  C   7.22066020692515      1.77669315281981      2.28892408929650
  C   7.25938486578778      0.27201581972546     -0.20594021365521
  F   8.51701405072018      5.66050376315864     -2.70777800522509
  F   11.11172205843202      5.28331483533976     -2.07402572089700
  F   11.83068603418667      3.36283627178086     -0.26171956664758
  F   9.94976701923650      1.81951373641886      0.91057131592776
  H   5.67254967487710      6.36201896003805     -0.62753180139899
  H   4.67370030272515      6.08397528229258     -2.07476018609647
  H   6.39956060696608      6.47086257503567     -2.25065131757182
  H   4.99543825614419      3.67905903698348     -3.75199735692096
  H   6.34727080620231      2.57512826781923     -3.43194575888117
  H   6.67653694334652      4.26468958161822     -3.93684467024892
  H   6.56427558594450      1.01134984082779      2.72088120896325
  H   7.03728162841153      2.72718385320424      2.79992734703317
  H   8.26020220019691      1.47640251758107      2.45916884532376
  H   6.54040335835025     -0.47208819881969      0.15216917287244
  H   8.27251450999878     -0.02481793682580      0.09387356587882
  H   7.19352127647234      0.31384037294796     -1.29826646154007
  O   4.96525052114752      4.31200083180989      1.39933343242392
  P   3.52331044609750      1.48886952841521      1.35698955776348
  P   2.69397630739260      3.71320592696308     -0.72650008840905
  C   3.97534645995842     -0.28775660160361      1.37628349443669
  C   3.46493644685870      1.97315551525929      3.13555262672083
  C   1.77577331393090      1.58142941445728      0.83068175241555
  C   1.40268375898834      2.58101675027922     -0.10260638349370
  C   2.41791985077614      3.88510092744058     -2.53017763491694
  C   2.22100638991451      5.35091827003969     -0.02286751557578
  H   4.03960046997986     -0.65664562926365      0.34693958184923
  H   4.94337143083568     -0.42021150668049      1.87457114565456
  H   3.22302175732322     -0.86445930073674      1.92428714161015
  H   4.46892060083986      1.97066994949347      3.57585040838171
  H   3.02373682331753      2.97169131484420      3.25175239558771
  H   2.83456803268547      1.26423994010613      3.68781098313596
  C   0.78287250309350      0.76399283115770      1.38064974656653
  C   0.05328923359231      2.71903564266968     -0.44447403230324
  H   3.03923137234957      4.69723325110843     -2.92673384379744
  H   2.68095674038970      2.94592397740900     -3.02864577350421
  H   1.36791927045651      4.12357097022273     -2.72890486016405
  H   2.94554454742946      6.12162087961968     -0.31054019053466
  H   1.22899819625519      5.63984347016850     -0.39385830839476
  H   2.16494408930656      5.30075470818534      1.07235624445648
  C   -0.56202889526568      0.88312877990614      1.00426092815497
  F   1.08773117017865     -0.15620698040105      2.31885771131769
  C   -0.93078376191805      1.87099524939798      0.08220927199535
  F   -0.35000534937231      3.69893098205205     -1.27942327552403
  F   -1.48100067335944      0.08444046326428      1.53233424322787
  F   -2.20203583913616      2.01595820644667     -0.27012511311237
  C   6.05321202991253      5.17677480667036      1.85836690350145
  H   5.76114784679244      6.22388687582097      1.73241550011110
  H   6.26783335249054      4.96148213011894      2.90964024860635
  H   6.91162364017682      4.93542307572152      1.22977315133152
  H   4.15435333163136      4.48197909772506      1.91514972374785
