79
Coordinates from ORCA-job COWVIV_0_2_tpss_d4_lanl2dz_631gpol_Mn2.opt
  Mn  10.32276482885901      2.53918415323521     13.00561383447602
  N   11.46052138259727      1.06797184133309     12.55173723453520
  C   12.03260328379322      0.08474674634359     12.16415461522599
  S   12.81559509261925     -1.23836985782323     11.63491728596406
  N   8.71807674619724      1.49433003902500     12.43993251129273
  C   7.63421315506551      2.12778918691577     11.92394418694561
  H   7.72539326054802      3.20291624791562     11.80743483512581
  C   6.46807922521926      1.45588817401971     11.56941564562826
  H   5.63392207829453      2.02236129374161     11.15900745153860
  C   6.37341651174627      0.06721163433026     11.75033924246073
  C   7.49997445103520     -0.58372949380827     12.28019311418529
  H   7.50134822996377     -1.66167262124660     12.42639925921048
  C   8.63795478062626      0.14731836758367     12.60598970171981
  H   9.52778259393897     -0.33219209945008     13.00059766954199
  C   5.10732861028392     -0.69520461165113     11.40233197453892
  H   4.54236056532235     -0.88905174000699     12.32718140457663
  H   4.46588458329968     -0.05374221338854     10.77942844429829
  C   5.37155931579325     -2.01407477626168     10.69547721512088
  C   6.13840055503068     -2.04863654513815      9.51673841805156
  H   6.55484123315038     -1.12463922397395      9.11666203287235
  C   6.38559272833273     -3.25221739902870      8.85156546018201
  H   6.97916645694532     -3.27541406707719      7.94137999877019
  C   5.85830580748610     -4.43759505073782      9.37777062372727
  C   5.09867035116179     -4.43701486519410     10.55037962251883
  H   4.70249386775562     -5.36808060837187     10.94725219536381
  C   4.86341150557225     -3.21968375424012     11.20194961726403
  H   4.27288817416474     -3.21296456984109     12.11789916998088
  N   10.47820125704627      3.56413998488694     11.29609396666125
  C   9.92610667904772      4.79515395274316     11.13846354930397
  H   9.41176471750824      5.19794620493035     12.00593283134676
  C   9.99544222073948      5.50178951831618      9.93856934791293
  H   9.53288162053234      6.48570461338459      9.87840918125765
  C   10.64871266385185      4.94585871946319      8.82985481259345
  C   11.22113396315120      3.67244185857659      9.00302125301849
  H   11.76148904993816      3.19232733996207      8.18953295380121
  C   11.11833354122406      3.01890063215332     10.22529650793604
  H   11.55272071181171      2.03893681349153     10.39141407781745
  C   10.73553780998181      5.67585212938341      7.50144997928826
  H   10.36997268797005      6.70474189366550      7.63427660479535
  H   10.05662402190870      5.19489880376254      6.78085385631679
  C   12.14280587763145      5.68779355254225      6.92734652232360
  C   13.20086724020493      6.26112918244431      7.65553202563988
  H   13.00762123131687      6.69538500969535      8.63608886960576
  C   14.50126193363448      6.27846795180069      7.14524388436047
  H   15.31672704349089      6.72515208285422      7.70822893847465
  C   14.74411051090870      5.70797019354159      5.88972706252738
  C   13.71540100251649      5.12467121803303      5.14581275588880
  H   13.92397633557105      4.68357030764884      4.17462612189124
  C   12.41837437207073      5.11922828107034      5.67490551132060
  H   11.61145457163748      4.66681034142332      5.09876365155940
  Cl  6.16379915834914     -5.96234606913193      8.54522686024280
  Cl  16.38250058769158      5.72431271372905      5.23736112447811
  N   9.14137872411013      3.73357650858553     13.91567463051705
  C   8.26173869467575      4.46973068345345     14.27238049441473
  S   7.08217648757478      5.49759404793104     14.71847421630759
  N   11.92674427758072      3.55210811503865     13.74088762641518
  C   13.12083593062692      2.95908881980135     13.99914110943334
  H   13.16159729207698      1.89107543833048     13.81533955872765
  C   14.22903274975643      3.66325396181723     14.46445169883901
  H   15.15400139683270      3.12202064147403     14.65731436281117
  C   14.14967457137618      5.04772902706446     14.67811862835234
  C   12.91152528089456      5.65655121109462     14.41613195627905
  H   12.76926630202115      6.72206627302281     14.58382445478901
  C   11.84191105117178      4.89062055044447     13.96304189346746
  H   10.86663859613750      5.33211836995681     13.78991425412029
  C   15.35059405761040      5.84748683276753     15.15421183589505
  H   15.86105046694716      6.27790899609461     14.27832492475637
  H   16.07187067732461      5.15916269875545     15.61985658000788
  C   14.99485780460200      6.96380784957032     16.12024320331856
  C   14.31648296635127      6.67764820858056     17.31902894499277
  H   14.04021815617190      5.64933436321141     17.55030407873620
  C   13.98092662862593      7.69294519971486     18.21840820010269
  H   13.45700085651060      7.46825893026495     19.14386961698840
  C   14.32869177050084      9.01359596121352     17.90978771490355
  C   14.99838446537881      9.33054223567411     16.72525240783618
  H   15.25724791703876     10.36227176854662     16.50181269098780
  C   15.32432770672672      8.29780478593348     15.83697685883701
  H   15.84585874766871      8.53880763866782     14.91071220986141
  Cl  13.90969623916589     10.30311946541441     19.03809083282050
