85
Coordinates from ORCA-job COWVIV-CH3OH_0_2_tpss_d4_lanl2dz_631gpol_Mn2.opt
  Mn  9.93199594994489      2.29596491455932     12.98061760196793
  N   10.98964423690141      0.75938496186554     12.54537025951284
  C   11.62032346267732     -0.22565346462578     12.27986891945392
  S   12.49833078386407     -1.55020486441915     11.91252216244883
  N   8.27838242071566      1.31048077151265     12.40497034952640
  C   7.21091167978376      1.94201265355187     11.85940862756290
  H   7.29608543147367      3.01698037481316     11.74896324348977
  C   6.05196839931102      1.27367141838223     11.47090487427959
  H   5.23213476230501      1.84354369738915     11.03663458219674
  C   5.94905352833567     -0.11374198168706     11.64709960797530
  C   7.05509971220436     -0.76315262911621     12.22070271358920
  H   7.04892790387920     -1.84044390092240     12.37337866277562
  C   8.18192989051489     -0.03302247603994     12.58426578894840
  H   9.05214358793777     -0.50877517912347     13.02098314105169
  C   4.69592315270695     -0.87518497954930     11.25314680246561
  H   4.10506964467761     -1.08619344052686     12.15792364824953
  H   4.06970361422089     -0.22621153273148     10.62236584695094
  C   4.98317537023193     -2.18174145292066     10.53244101837689
  C   5.80619920935854     -2.20063043779906      9.39179217578527
  H   6.25305621232415     -1.27360195734325      9.03395081044360
  C   6.07107343045010     -3.39250226254584      8.71240814555096
  H   6.70870239398333     -3.40334468261657      7.83226401785632
  C   5.50444729736130     -4.58201962183187      9.18558674160705
  C   4.68850803216835     -4.59718267215682     10.31959380373990
  H   4.26228909718660     -5.53164541340188     10.67534020438839
  C   4.43651731067984     -3.39148823144928     10.98623421760049
  H   3.80175413756465     -3.39707219431343     11.87222038661764
  N   10.27370398739754      3.18141690572663     11.24456754462647
  C   9.56316430678231      4.26512138845192     10.83391749647550
  H   8.70890475203562      4.53503608824821     11.44488061501184
  C   9.92978016550231      5.04208609028036      9.73666684910980
  H   9.32105314869679      5.90731205883423      9.47808089323756
  C   11.08372594295421      4.72980657291340      9.00565572059174
  C   11.79728963236926      3.58890057944110      9.41242588000274
  H   12.70494361548087      3.28637226538822      8.89307386414854
  C   11.37011479564188      2.84599548099542     10.50552288891126
  H   11.90742179852047      1.96806179483504     10.84585239140138
  C   11.59897675320726      5.62538590691214      7.89851761582018
  H   10.81483647773436      6.34248746600893      7.61438414638747
  H   11.83024514503179      5.03054135943222      7.00377863703434
  C   12.85262800367924      6.37449208553539      8.33856255708872
  C   12.86280604745172      7.10466919384023      9.54051703356729
  H   11.97228694418136      7.12674219979995     10.16766424242105
  C   14.00179407465956      7.80065458338969      9.95500559967377
  H   14.00119767225453      8.36649535847779     10.88285603097202
  C   15.14876358750082      7.75152092856638      9.15463989938416
  C   15.17510069949993      7.02833150903421      7.96007427140480
  H   16.07763843548438      7.00081249179258      7.35494900174779
  C   14.02055173475356      6.34268867927287      7.56180303885389
  H   14.03413121998561      5.77796791520779      6.62982185490955
  Cl  5.83211029737713     -6.09284587802704      8.33497492689071
  Cl  16.60141797846347      8.62211395131237      9.66485660899756
  N   8.84080145734083      3.74096107301732     13.66467844230295
  C   8.06153697444876      4.60042625390460     13.97660674124077
  S   7.01404491191501      5.78668067585640     14.36461359089460
  N   11.61132927018186      3.29706813151079     13.55539546498721
  C   12.78926764676431      2.67555234676174     13.83000559281785
  H   12.75741625937786      1.59143324322783     13.83938650312069
  C   13.97423024500914      3.36651594631033     14.06027354708569
  H   14.87970734998071      2.80061242747829     14.27512182252343
  C   14.00082726627754      4.77067326960609     13.99995518254539
  C   12.78509040920441      5.40852956224596     13.71381870273337
  H   12.72602025044353      6.49250901683284     13.65216021540690
  C   11.63134151656397      4.65422374529176     13.50948735314212
  H   10.67769649053719      5.12581963086090     13.29629436648682
  C   15.30847841038176      5.52046887981345     14.22419645940375
  H   16.00697169818834      5.24475830453001     13.41951217229560
  H   15.76046723333446      5.14710697929566     15.15656661477461
  C   15.17694067605531      7.02756833802215     14.28236353182608
  C   14.57988685944509      7.65232624213034     15.39223427360980
  H   14.22178889718113      7.04654527378860     16.22445635140081
  C   14.43024128094590      9.04145446952800     15.44698870072727
  H   13.96812735226234      9.52003595232799     16.30657692662161
  C   14.88952915571445      9.81366992790586     14.37363148058748
  C   15.49153305880287      9.22367267653842     13.25864580529238
  H   15.85128929404153      9.83642513382052     12.43622377552325
  C   15.62655061929479      7.82989191583504     13.22221969388790
  H   16.09414545089971      7.36944816868406     12.35277199253367
  O   9.47766160043197      1.44488155787434     14.84987733051792
  Cl  14.70892963276629     11.56730685044258     14.43287720794862
  C   10.52645482955794      1.05236989648561     15.76687556735701
  H   11.18154568733627      1.89891296334409     16.00686047966313
  H   10.07323562269111      0.64694473340110     16.67969887151137
  H   11.09253693459763      0.27424036556785     15.25058882373178
  H   8.99079778861360      2.21879365513468     15.21303845241221
