85
Coordinates from ORCA-job COWVIV-CH3OH_0_4_tpss_d4_lanl2dz_631gpol_Mn2.opt
  Mn  9.70370542129979      2.35525549127525     12.90884265361825
  N   10.61433884881687      0.78369525944473     12.22521703008458
  C   10.67915851354326     -0.27579647632407     11.66193715997767
  S   10.79097883634467     -1.70398235352998     10.89420700847812
  N   8.00296636277302      1.36028373579399     12.57520269134050
  C   7.06240831934710      1.83258180975628     11.72344281675197
  H   7.20207145654829      2.85273389461090     11.38141512998423
  C   6.00307446107415      1.04869277223548     11.27350782603433
  H   5.29636684828538      1.46924138282845     10.56002453243268
  C   5.87235998453805     -0.27706918458849     11.71480346482521
  C   6.81653417266102     -0.73388683320113     12.65101505670347
  H   6.77257613889868     -1.75154513680346     13.03267371050595
  C   7.85501302056286      0.09545739245571     13.05361054968028
  H   8.61643454004403     -0.23334707629962     13.75229129701422
  C   4.79646521067806     -1.19746237184112     11.17869431049587
  H   4.06594721476690     -1.41621101774222     11.97321898110803
  H   4.23916102756796     -0.67395904215215     10.38635447747446
  C   5.34498239192206     -2.51564235305474     10.64135715163134
  C   6.60685847563162     -2.58599774773303     10.02552758557289
  H   7.23285227318553     -1.69850531996607      9.95414384410033
  C   7.09679289218344     -3.79434476347245      9.51925017981528
  H   8.08053878960141     -3.84083662634881      9.05979754459591
  C   6.30672846710010     -4.94284224531881      9.62541753953978
  C   5.04757796351759     -4.90564292855843     10.23245622231005
  H   4.45174870489437     -5.81119999934050     10.31418625846749
  C   4.57936665384681     -3.68896913656684     10.74060750194169
  H   3.60214300025997     -3.65713380376469     11.22296358888712
  N   9.75389988608096      3.45775247766456     10.83215714521129
  C   9.18704721416767      4.66530276131215     10.62675252425847
  H   8.33405928177636      4.91227861325496     11.25599639526702
  C   9.66892045053612      5.58501821415767      9.69175108771058
  H   9.17105609253432      6.54680373376180      9.57733035029578
  C   10.79843565846676      5.26323210655544      8.92652596885095
  C   11.37670246210830      3.99769932556995      9.12986920977990
  H   12.25746816282832      3.69329834603616      8.56673237710051
  C   10.82852331270783      3.13353224440917     10.07503677560330
  H   11.25681614924958      2.15338195369661     10.27254406553365
  C   11.40717371031574      6.25435788666368      7.95407621747639
  H   10.71007877956175      7.09254482667603      7.80915454876192
  H   11.54290620324728      5.77673539095616      6.97365215466558
  C   12.75199159841146      6.78206599971048      8.43960365752821
  C   12.87720388877393      7.36810127957390      9.71205156867445
  H   12.01002723827160      7.42491134467101     10.36932123250201
  C   14.09890335434410      7.88690664279153     10.15247486748049
  H   14.18836597517859      8.34870930132003     11.13220084510067
  C   15.20897435626355      7.80628610055433      9.30376046705547
  C   15.12197963067860      7.21531497512264      8.04124303650548
  H   15.99772901616734      7.15965838364974      7.39982939400200
  C   13.88787393861672      6.70563331218079      7.61960078249414
  H   13.81135031829987      6.25066892031071      6.63228628556408
  Cl  6.91408766741541     -6.47540502582172      8.99184917284853
  Cl  16.75981492277594      8.47503346508271      9.82842012747759
  N   8.73623254435029      3.85749685016838     13.71204088077998
  C   8.32359899910847      4.98157422784898     13.81684553909320
  S   7.76056157546370      6.50510008452006     13.90405078162497
  N   11.47241065843861      3.24908342542906     13.23786528759370
  C   12.56830699714691      2.51928073416158     13.58554466462655
  H   12.40753702875226      1.44854621868214     13.66637094370882
  C   13.81398728557017      3.09658489777584     13.80301008337093
  H   14.64791661785502      2.45797428590622     14.09093330775264
  C   13.99441572625565      4.48171188579123     13.63892800814863
  C   12.86311819174057      5.22441616185767     13.26308144555370
  H   12.92618332462241      6.30093955649865     13.12500413829597
  C   11.63712271907638      4.59128507880037     13.08795841814309
  H   10.74772409380074      5.15333199200019     12.82355580272545
  C   15.36303654192462      5.11568586140885     13.83271877938667
  H   15.95904180881988      4.95261141975822     12.92090876065491
  H   15.88722130606812      4.57441151355371     14.63576052041381
  C   15.32730200138615      6.59964301987325     14.14125039883405
  C   14.66563174866746      7.08087243930123     15.28584841545979
  H   14.17602741294854      6.38033138452027     15.96190635277827
  C   14.61270183885971      8.44908087244642     15.56709703152180
  H   14.09889269515524      8.81776731859936     16.45116231999530
  C   15.23197508472541      9.34607193885172     14.68795827445694
  C   15.89951964984535      8.89918984761674     13.54460925418972
  H   16.37598975115160      9.60643775632423     12.87083501024638
  C   15.93940430286905      7.52363033858566     13.28163877746423
  H   16.45742613726034      7.17334313914899     12.39015056651056
  O   9.40684213969729      1.62275880883422     15.24981403834240
  Cl  15.16639918523210     11.07510774173932     15.03201819708902
  C   10.42694075437997      1.83051190898085     16.24363518432216
  H   10.97329917178709      2.76877325281834     16.07203854264828
  H   9.99061801220625      1.83637324690949     17.25257948715198
  H   11.11827751622823      0.98710945336378     16.15725117782556
  H   8.83815791993337      2.42779343626980     15.22725323816825
