81
Coordinates from ORCA-job COWVIV-OH_0_1_tpss_d4_lanl2dz_631gpol_Mn2.opt
  Mn  9.71047172127618      2.31708352876278     13.17869704238551
  N   10.58496768681935      0.79198090261673     12.37251625749702
  C   10.60854828236846     -0.23689529719552     11.75625977603734
  S   10.67836180962626     -1.61983444582546     10.90106638568755
  N   7.98994124254369      1.36295725082066     12.73833357804940
  C   7.08074913982371      1.82822257743004     11.85860805621287
  H   7.21159145037890      2.85297568325621     11.52889585135171
  C   6.04161463246091      1.03662970519885     11.37015664752260
  H   5.35304936855892      1.45283560363307     10.63695679541286
  C   5.90872115262366     -0.28782085832587     11.80812747064368
  C   6.82596880055329     -0.73961116406251     12.77282742225168
  H   6.77636479938897     -1.75797684964560     13.15169287977717
  C   7.84424799763633      0.09891854815044     13.20916592301695
  H   8.59251325003981     -0.20654739214450     13.93374192879243
  C   4.85034831278518     -1.21226976950309     11.24467520675247
  H   4.11107320383131     -1.44192563358722     12.02756672481163
  H   4.30089035371503     -0.68616960033499     10.44869867127815
  C   5.41683178700350     -2.52190834504506     10.70557766666212
  C   6.69357456085220     -2.58315810574514     10.12075484587961
  H   7.32422689492713     -1.69709461794709     10.07816005518581
  C   7.19469673520038     -3.78458848802621      9.60848950394318
  H   8.18937541240553     -3.82463382046364      9.17275254778611
  C   6.40186320370746     -4.93384612089028      9.67725151356259
  C   5.12829205035229     -4.90515168709652     10.25417434112363
  H   4.53033762269437     -5.81136925336700     10.30748579337145
  C   4.64833998750706     -3.69606642433646     10.76885421315355
  H   3.65955912350293     -3.67067220276972     11.22733751939861
  N   9.86232464769631      3.31898983727590     11.24915490160010
  C   9.19361178113075      4.45485679349873     10.94669386721223
  H   8.34584077870422      4.70021002562995     11.57909440629229
  C   9.58784633178835      5.31704267370660      9.92275536013702
  H   9.01643976981933      6.22643994658358      9.74585476518469
  C   10.73291443706247      5.02435517311909      9.16948800472722
  C   11.39835664091561      3.82143092949909      9.45851438001141
  H   12.29322034712989      3.53459473859749      8.90944516100999
  C   10.93836796015884      3.00354240720186     10.48506267369300
  H   11.44013010460132      2.07940547625611     10.75334241231595
  C   11.28549665934357      5.99287064598757      8.14284542467866
  H   10.56680288046284      6.81017152098556      7.98746569876921
  H   11.40964331024684      5.48366211991238      7.17692888692246
  C   12.63126045822838      6.55324929588273      8.58932239204211
  C   12.76569791244169      7.17491933163038      9.84408520708331
  H   11.90226454657197      7.25440342056580     10.50393694913817
  C   13.99292825467038      7.69558105507922     10.26541202757762
  H   14.09070169818859      8.18104489025067     11.23292471097544
  C   15.09891211466327      7.58275067635139      9.41481824185895
  C   15.00021397338190      6.96340624200058      8.16665325406856
  H   15.87237029044370      6.88522456562106      7.52277385447485
  C   13.76101682585958      6.45031656590397      7.76409869025975
  H   13.67705084882764      5.96886118145273      6.79011673604124
  Cl  7.02320868384810     -6.45666349790289      9.03435363797090
  Cl  16.65886026406749      8.24092641335146      9.92130647557672
  N   8.75819437806873      3.84912344819757     13.82237341456482
  C   8.23613292385052      4.91152606791556     14.00526517243921
  S   7.53473262535296      6.37188988001908     14.18592471015104
  N   11.48881754178946      3.22925227945567     13.50612937319655
  C   12.52700372721908      2.46980980603537     13.92735694690480
  H   12.30631252015380      1.41533177874196     14.05908696563572
  C   13.78506862909621      3.01323444730506     14.17403761268897
  H   14.58675126929181      2.36122945232447     14.51704017445643
  C   14.01040204481782      4.38682702600127     13.98005293281629
  C   12.92114383036688      5.16098329178042     13.55234045331809
  H   13.02463613339125      6.23268057877380     13.40381933522220
  C   11.68578839916908      4.55502222744913     13.33678540797490
  H   10.81659446491811      5.12876750730774     13.03062540922941
  C   15.39097762646096      4.98612436435725     14.21240165136541
  H   16.02643433912676      4.73768406831609     13.34818163638235
  H   15.84660037672347      4.48386193754785     15.07910845545461
  C   15.38664697037536      6.48734973018251     14.41766167840911
  C   14.81711338995661      7.04785195566717     15.57538357094995
  H   14.39387238201402      6.39625189314693     16.33944090212795
  C   14.77435548085580      8.43260586143053     15.76143474145928
  H   14.33292597149203      8.86193419901502     16.65709845889793
  C   15.31016264110499      9.26560068165845     14.77176067975087
  C   15.88465741658747      8.73916257752629     13.61155888972291
  H   16.30053301627503      9.39802659780348     12.85391141981909
  C   15.91568900489123      7.34845518163701     13.44431643311066
  H   16.36193474131225      6.93757796934678     12.53962592814626
  O   9.78185998896367      1.54782358404577     14.81033999664840
  Cl  15.25941477360616     11.01416893826149     14.99521360034246
  H   9.30875128992949      2.14993651675146     15.42470131164137
