79
Coordinates from ORCA-job COWVIV_0_6_tpss_d4_lanl2dz_631gpol_Mn2.opt
  Mn  10.31505237030376      2.51194849368178     14.33890041628634
  N   11.60456371478492      0.97217346104835     14.55917683701238
  C   12.27783473720641      0.13438421809098     14.02066943332773
  S   13.17147199624560     -0.97953225369242     13.23717993837754
  N   8.61758219784662      1.01959080904809     13.66001969478902
  C   7.32734602459901      1.41217674032609     13.60721054511423
  H   7.04186967719704      2.20186803205486     14.29672973858641
  C   6.40525572187696      0.86960300190238     12.70839772722142
  H   5.37897107298100      1.23319551111888     12.70809569306915
  C   6.81825452130308     -0.12344146699177     11.80965410239179
  C   8.15413213154594     -0.55132922388307     11.88873476420325
  H   8.53356472137247     -1.32454520501044     11.22295280159909
  C   9.00850585447565      0.03205842893468     12.82065883686392
  H   10.04796829736088     -0.27658411328478     12.90160170731982
  C   5.87832288092325     -0.68987288003885     10.75845105795125
  H   5.90181289208608     -1.78773728420041     10.79763396658553
  H   4.84988833832358     -0.37608677493418     10.98178799477640
  C   6.27371989234386     -0.22469229261343      9.36473106932400
  C   5.98469668338999      1.08516144608968      8.94379731569444
  H   5.45097464349281      1.76113868908386      9.61123663718130
  C   6.36589214371001      1.53761669541245      7.67706227290212
  H   6.12649534498750      2.54608331797181      7.34884286052779
  C   7.05785908149986      0.66657980557527      6.82704868986257
  C   7.36421455766323     -0.63973881491272      7.21813164913465
  H   7.89396594803399     -1.30511605545457      6.54111836038145
  C   6.96570043484387     -1.07513325793319      8.48832309445054
  H   7.19082012515457     -2.09704484975328      8.79231141513213
  N   10.39047351368317      2.79480107831231     12.12819877030020
  C   9.32859976220073      3.34178458438236     11.49687933823975
  H   8.61029405216180      3.86324864243794     12.12635227209177
  C   9.14281526122022      3.23836800302342     10.11854366015667
  H   8.26611005494681      3.69110657246075      9.65965813542911
  C   10.08169768744930      2.54642751871189      9.33859822778896
  C   11.19408922675295      1.99866253328756     10.00128727543786
  H   11.96384325612699      1.46551752256779      9.44744011729450
  C   11.30998290540579      2.13997858773062     11.38204828787893
  H   12.14645138615743      1.70508456852605     11.92447530009527
  C   9.89994443697932      2.38348681396954      7.84344890541078
  H   9.05671601922568      3.00781914993728      7.51403128220880
  H   9.60300677127898      1.34560699098587      7.63622384928985
  C   11.14028767191931      2.71737058373741      7.03160598984466
  C   11.89779982892902      3.86760683526864      7.31375493294391
  H   11.61019655150330      4.51491123566811      8.14150504719266
  C   13.02347108550788      4.19519788070503      6.55244024210044
  H   13.60756554353934      5.08487877627148      6.77342707496673
  C   13.39228163376055      3.35703302627639      5.49448357795300
  C   12.65887418299961      2.20710924314505      5.18886855828719
  H   12.96223873561729      1.56719666868799      4.36436272487972
  C   11.53600517447746      1.89572897525646      5.96474227720201
  H   10.95610246049625      1.00371846020281      5.73007359456001
  Cl  7.57016013521839      1.23640769335287      5.23732317675702
  Cl  14.81417464635891      3.75904755371267      4.52973128863086
  N   8.91564119296010      3.86335101224275     14.88287639504848
  C   7.99516613021168      4.55226809441559     14.53082954777845
  S   6.74105139919950      5.45040245420725     14.00888566534300
  N   12.00276932471378      4.02480133730421     14.62598137855413
  C   13.29861837348951      3.64758728043408     14.59669117593581
  H   13.47393872208605      2.57546972919075     14.54527690544197
  C   14.35127688660746      4.56421516136224     14.63962033941870
  H   15.37902595838344      4.20550221778753     14.61210917859680
  C   14.07429656882501      5.93661043472064     14.72190954641605
  C   12.72295662944967      6.32152087823950     14.76458587475094
  H   12.44726809308111      7.37087047642071     14.85215785813062
  C   11.72844513328738      5.34761815406574     14.70978129935427
  H   10.67184567533493      5.60324407739370     14.74236498003579
  C   15.18458135186723      6.97055845398299     14.78499909171335
  H   15.14640609062872      7.59928982699362     13.88327362514831
  H   16.15602645818620      6.45540674837570     14.76975140135981
  C   15.07961559589403      7.85773570277109     16.01609275156684
  C   15.08151587759414      7.28880739748572     17.30234823254527
  H   15.15315496401334      6.20736989863892     17.41463179857677
  C   14.98596014583659      8.08800483317872     18.44431845036057
  H   14.98947805615564      7.64553768915331     19.43706284199087
  C   14.88238383750138      9.47602261876098     18.29299404446769
  C   14.87145784479278     10.06998611752436     17.02835669894628
  H   14.78764863799213     11.14923745333337     16.93079675311099
  C   14.96918776980396      9.25104633313605     15.89618536679016
  H   14.96340616168089      9.70919763065688     14.90729470064290
  Cl  14.76105913095102     10.49401431196798     19.72816157096383
