81
Coordinates from ORCA-job COWVIV-OH_0_5_tpss_d4_lanl2dz_631gpol_Mn2.opt
  Mn  9.73741618091294      2.13982443449239     12.73631332121989
  N   10.67898524186636      0.69464871689359     11.76544458371950
  C   10.54094134245255     -0.22617497072494     11.00320699026447
  S   10.37724788603587     -1.45616471198468      9.95908891493190
  N   7.76549764586899      1.45514594587652     11.76211579798648
  C   7.69632143230171      1.08001348683338     10.47041579963106
  H   8.46391281008999      1.48727710862524      9.81557327115514
  C   6.73080144163832      0.19479696854924      9.99091810384054
  H   6.73246623025416     -0.09155985431288      8.94075675703020
  C   5.79801683652115     -0.35377165190796     10.88297732363977
  C   5.85723646414516      0.06421699483944     12.22386088990356
  H   5.15786627668835     -0.33173650692287     12.95834882049624
  C   6.84373369754495      0.96466519761526     12.62108288247493
  H   6.94609705904776      1.29550873432265     13.65199453041343
  C   4.83473479057309     -1.43449779313780     10.44229992576507
  H   3.83574263493315     -1.24588454295913     10.85955052110518
  H   4.73441329261614     -1.40896091831473      9.34649234352539
  C   5.30672891038990     -2.81846094223510     10.88435393751335
  C   6.66474444438987     -3.17693904893754     10.81490125182416
  H   7.40844365225143     -2.45913874012320     10.47121288480049
  C   7.09191130111626     -4.45192513602917     11.19900647311563
  H   8.14390954605398     -4.72013887423179     11.14700061826031
  C   6.14644401566772     -5.37428008299624     11.65897755584876
  C   4.79079013563320     -5.04458943313839     11.74504723760107
  H   4.07183855755739     -5.77248178173473     12.11242641789974
  C   4.38251720705092     -3.76280622774401     11.35812840607796
  H   3.32709176568531     -3.49884331161548     11.42661488142659
  N   9.95058690780872      3.37543771119196     11.01604721497485
  C   9.05614627296214      4.35317703267787     10.75686535465870
  H   8.11482776942813      4.28775852092555     11.29265258996579
  C   9.34018339660860      5.41044768000820      9.89220407008698
  H   8.60146927235726      6.19684172539986      9.75306025658911
  C   10.58876586704644      5.47212485576972      9.25868920888056
  C   11.48188118876948      4.40820433783189      9.47842291266778
  H   12.46137697798572      4.39912102037759      9.00486737044999
  C   11.13241291770528      3.38677922273212     10.35352641822292
  H   11.79961125908058      2.55972797550526     10.57815235554995
  C   10.99781786865949      6.66079892627437      8.40874680899276
  H   10.21176285726910      7.42777481100554      8.45855458847733
  H   11.07533217325704      6.35328323383595      7.35536345857428
  C   12.33217448928003      7.23544686566078      8.86299794050788
  C   12.51644349780392      7.63668131477519     10.19944638119522
  H   11.69556185401505      7.54676820806730     10.91055031816717
  C   13.74187286512544      8.14910164576474     10.63627355894861
  H   13.87951352491245      8.46134925815575     11.66825654216292
  C   14.79331270244329      8.25449900170316      9.71786787228844
  C   14.64297553741353      7.86145038470453      8.38607204078620
  H   15.47318622079650      7.95204316642917      7.69043620451013
  C   13.40733623578851      7.35066291183448      7.96947205544764
  H   13.28323333476469      7.04136182543829      6.93189541159364
  Cl  6.67542253161804     -6.98621536624230     12.15048482422348
  Cl  16.35124969253349      8.90102884835646     10.24584969276584
  N   8.81790983054197      3.63716036111250     13.63757859405924
  C   8.67154437321219      4.81918009670439     13.78057190054484
  S   8.47697378097004      6.42990590576660     13.90611122360487
  N   11.79634896144169      3.10853293195931     13.26121561097320
  C   12.87245463477051      2.32739843707013     13.48609728855087
  H   12.69712974941755      1.25564453526353     13.41664613951355
  C   14.13400864638836      2.84868468405037     13.77343267170141
  H   14.96936856616254      2.17240380322040     13.95061798861219
  C   14.31435662685933      4.24185729845398     13.82984076935890
  C   13.18808181844019      5.04599840184235     13.60086560702494
  H   13.25968079104205      6.12978233918519     13.64486260564994
  C   11.95942175323880      4.44451370757832     13.32744958450979
  H   11.06968916199776      5.04630243367507     13.15626221792166
  C   15.69208969005225      4.83242909558158     14.10903752048301
  H   16.30973302078474      4.70878561061695     13.20601939103197
  H   16.17515289057671      4.23070283614553     14.89329150465178
  C   15.66674850892490      6.29296477145682     14.50944250916595
  C   15.24693560495557      6.67121440522294     15.79717613586750
  H   14.96627219559756      5.90562581308006     16.52008241196148
  C   15.17412299613838      8.01731335052451     16.16783038050418
  H   14.84961113295750      8.30510167365486     17.16442811693224
  C   15.52612412340852      8.99636081692758     15.23154267103640
  C   15.94726252758466      8.65295040603255     13.94377794995544
  H   16.22170963878895      9.42376111267997     13.22863820554419
  C   16.01192886878862      7.29840904632175     13.59268512957730
  H   16.33808149623461      7.03099071003070     12.58817385071658
  O   9.56719039085398      1.08231163417217     14.18948625525378
  Cl  15.43902264615443     10.69813279110041     15.68719285758078
  H   9.94624755899247      0.20793281338783     13.95302701554902
