74
Coordinates from ORCA-job BOJMAP-oxo_1_5_tpss_d4_lanl2dz_631gpol_Fe2.opt
  Fe  -0.40762674714632      0.18565955617235      0.18124142040699
  O   6.22658857871517      0.66313152414968      0.87375249149610
  N   -0.37318702158397      2.29810326950370      0.12881596689597
  N   -0.76119732452630      0.58599034508515     -1.86775236422824
  N   1.58228888284994      0.27518500531006     -0.18139769529149
  N   -0.99234461419094     -0.12353922749516     -3.00177577629630
  N   -1.12386910186203      2.04773024350876     -3.44806617369950
  N   -1.28333416371705      3.29652233492758     -4.10140477256073
  N   -1.39581078492320      1.47766311308286     -6.24847730627365
  N   4.11197235384981     -1.66729925960546      2.44379009498527
  N   2.55101862556005      3.45137788134012     -0.50784126081786
  N   6.84519149530696      3.69202173768294     -1.38611920635366
  C   -0.13724937113867      3.05945185510636      1.20680278678935
  C   -0.12656703354126      4.45643290285487      1.12580379417932
  C   -0.34579113395655      5.06346129543357     -0.11292268059838
  C   -0.58008807534110      4.26975991557891     -1.24056796325786
  C   -0.59120360593349      2.88099326852738     -1.07887730822618
  C   -0.81904293797995      1.89467983338104     -2.12654777940363
  C   -1.21651901697746      0.76622077598175     -3.96948736369200
  C   -1.46151638457160      0.44365495957361     -5.37592941748961
  C   -1.72556129127008     -0.88010317688534     -5.76551051667933
  C   -1.92794073241458     -1.13827461509529     -7.12275135100109
  C   -1.86250151228331     -0.07723497005907     -8.03517400322479
  C   -1.59547226445666      1.20887428069216     -7.55018865513386
  C   2.68875839205713      0.37839908799723      0.21372581512657
  C   4.10544590552305     -0.76432263624187      1.68911725518337
  C   3.61685821247058      2.96787935370885     -0.38586206485213
  C   5.98320420103462      3.10282411826092     -0.84417041087352
  C   3.96271146542052      0.30981204628828      0.77292818893565
  C   4.91158035885312      2.40426739934981     -0.22405023778204
  C   5.06217505409811      1.17818033571014      0.45364046177167
  C   7.40337509554806      1.49616457937144      1.07095741337829
  H   0.04041719654612      2.52467688920935      2.13792334819821
  H   0.05968460097099      5.04597729377764      2.01942705565327
  H   -0.32662288335630      6.14658791059760     -0.20816448571475
  H   -0.72887266215489      4.69807021353279     -2.22677096343375
  H   -1.14165145667551      3.06557828053154     -5.10174757468500
  H   -2.27602348075611      3.54646364509408     -4.00145991154792
  H   -1.76660285255955     -1.66704341451794     -5.01750856866864
  H   -2.13518097040717     -2.15043016374894     -7.46359320196241
  H   -2.01467220986757     -0.23886280079384     -9.09948720526998
  H   -1.53366093749112      2.06147632707645     -8.22467470752259
  H   7.92867765338898      1.63912224383130      0.12361907075556
  H   7.11480286074147      2.46087916280583      1.50078341117203
  H   8.01666737795678      0.92587498516926      1.77171014030378
  N   -0.14516545604309     -1.95505784473762      0.03948555265365
  N   0.25826430044254     -0.32317455212459      2.09661781986186
  O   -1.98866844413617      0.13029967623888      0.58594008672919
  N   0.59718649932878      0.37425316786197      3.20806596121491
  N   1.22566879469151     -1.74759084695467      3.43611488976683
  N   1.84953720605932     -2.94122481324344      3.87702899450013
  N   2.04394207882461     -1.24057005447906      6.13750304073646
  C   -0.44088983563239     -2.70300158477053     -1.03526742975410
  C   -0.22806274186687     -4.08693921750322     -1.04948685436379
  C   0.30452546421968     -4.70293778201847      0.08784339090666
  C   0.61889455809552     -3.92776876431784      1.20961918845652
  C   0.37630665127338     -2.55075316413797      1.14842017910151
  C   0.62229930058018     -1.60047712118337      2.22381282117259
  C   1.19708255634495     -0.49594784828441      4.02634557392684
  C   1.70115596575291     -0.18402374830671      5.36370435718570
  C   1.79285585409973      1.15098875890031      5.79176197850899
  C   2.26396962484255      1.39646614326535      7.08295667731437
  C   2.62641244791464      0.31219901207771      7.89244726364637
  C   2.49888670988771     -0.98302680423410      7.37508796710414
  H   -0.83906035448337     -2.16483689289731     -1.89302219744752
  H   -0.47615706260260     -4.66088968790432     -1.93853932093689
  H   0.47729309535144     -5.77674508899490      0.10551680256833
  H   1.03382929997698     -4.35492435993484      2.11809690587343
  H   1.91027802626280     -2.81679725000636      4.90167183281047
  H   2.81602378708268     -2.86582956315022      3.50968906008643
  H   1.49758768366285      1.95571146149091      5.12404769214101
  H   2.34789306037703      2.41652929119690      7.45200321188650
  H   2.99812798050714      0.46271342565580      8.90307744604655
  H   2.76597520937673     -1.85388165326644      7.97189931961243
