74
Coordinates from ORCA-job BOJMAP-oxo_1_3_tpss_d4_lanl2dz_631gpol_Fe2.opt
  Fe  -0.36347767876791      0.13834333801536      0.11359812243246
  O   6.19416073071689      0.57892477678356      0.83998852734684
  N   -0.36805545408546      2.13867781934226      0.22756065911379
  N   -0.77864857538045      0.54501833761270     -1.75910929921531
  N   1.60739230288278      0.17701444806399     -0.41405722683260
  N   -0.99080837326185     -0.16819263915776     -2.88976266170216
  N   -1.08738140749592      2.00279642723464     -3.35040814114946
  N   -1.21449646160699      3.25461657536875     -4.00338542262885
  N   -1.28860280101601      1.42321934907711     -6.14856315378443
  N   4.07876901880223     -1.88065723875372      2.21304101312202
  N   2.47215606792684      3.41699845694758     -0.26821187980820
  N   6.77019405437196      3.85588093314629     -1.07132348674798
  C   -0.18753356306253      2.86302514095427      1.34217664914718
  C   -0.22739158005665      4.26248604340454      1.32498059291589
  C   -0.43908184964239      4.93056011809321      0.11912113946755
  C   -0.62754078375267      4.18300521147794     -1.04697177544023
  C   -0.59628724876590      2.79154699808968     -0.95087470012981
  C   -0.81263283271725      1.85154990035665     -2.02564606297134
  C   -1.18360773753499      0.71835295914848     -3.86668839504972
  C   -1.39805041506284      0.39225288612087     -5.27679228769899
  C   -1.67560367833973     -0.92729969285425     -5.67024819447949
  C   -1.84379805282093     -1.18530936958098     -7.03234853789493
  C   -1.73210070807870     -0.12810053336129     -7.94443530343786
  C   -1.45549062461178      1.15452723944017     -7.45473781745982
  C   2.69209782215066      0.26828361770768      0.04944804813663
  C   4.07525429555277     -0.93865637120852      1.50629252106478
  C   3.54939199433661      2.94992990773396     -0.19245155583204
  C   5.91766843264014      3.19100735715995     -0.60863367873124
  C   3.93954804165867      0.18892714306480      0.65721071399654
  C   4.85680218958995      2.40277944000413     -0.08031577789665
  C   5.02464538665643      1.11543250297250      0.45573794381045
  C   7.34704473599743      1.41209238595132      1.14027944578352
  H   -0.00047031870469      2.29944369518328      2.25136542388004
  H   -0.07948609376274      4.80652192406534      2.25386163417765
  H   -0.45288268849071      6.01699541581322      0.07914266186982
  H   -0.77868985347349      4.64705122049716     -2.01665841005469
  H   -1.03036698506573      3.02903404922788     -4.99738126601172
  H   -2.20987007741839      3.50713881665382     -3.94612609146402
  H   -1.75363676651411     -1.71252092186832     -4.92338307659529
  H   -2.05995256784897     -2.19430970183234     -7.37685271651760
  H   -1.85620646162818     -0.28982598925831     -9.01234297146270
  H   -1.35845497393628      2.00380378787244     -8.12917416246768
  H   7.87497332733320      1.67639030810842      0.22075775502687
  H   7.03104707278655      2.31519097474402      1.67291361141758
  H   7.97138880861510      0.78240679345780      1.77791658634372
  N   -0.18325599285963     -1.86315186317172     -0.04009190551708
  N   0.32399042808668     -0.24966933727198      1.91288248985059
  O   -1.93784329172446      0.03737484099233      0.56718715714850
  N   0.66658004149323      0.47249335149443      3.00253414708529
  N   1.24364114510411     -1.65161484075144      3.31334453942218
  N   1.82155755327601     -2.84963405078804      3.79510547870607
  N   2.06162925838296     -1.06419173880238      5.99416372553348
  C   -0.54957171348299     -2.60822155658158     -1.09568603873406
  C   -0.38066320126750     -3.99791518403742     -1.10804802169121
  C   0.18307553200011     -4.63226349733477      0.00292655000669
  C   0.56743262682972     -3.86339119768593      1.10594098031204
  C   0.36241264127630     -2.48239515746954      1.04954546062128
  C   0.65480708749413     -1.53133399966043      2.09545803386782
  C   1.24186683954272     -0.37908824179980      3.85662196433045
  C   1.75591584835479     -0.02732848983962      5.17924989718761
  C   1.90080075669648      1.31977361629587      5.55044340904287
  C   2.38348588572267      1.59991913189015      6.83040839312481
  C   2.70512968664753      0.53658957492773      7.68351475960034
  C   2.52913040135220     -0.77339299759318      7.21954294779577
  H   -0.96363726595143     -2.06463356423353     -1.93986137892412
  H   -0.68917176681512     -4.56242544920263     -1.98393915844714
  H   0.32375350267341     -5.71061348069968      0.01483443282770
  H   1.00553574379669     -4.29616676923408      2.00062064471230
  H   1.90488246276794     -2.68677708903474      4.81238568355693
  H   2.78156255478687     -2.83792054395175      3.39769804751316
  H   1.64206819041494      2.10822296726765      4.84894033484360
  H   2.50927452284619      2.63026269090096      7.15627433246618
  H   3.08458652922972      0.71422207309509      8.68680780567771
  H   2.76639632421163     -1.62828303874031      7.85088629249174
