75
Coordinates from ORCA-job BOJMAP-OH_1_6_tpss_d4_lanl2dz_631gpol_Fe2.opt
  Fe  -0.56547097873898      0.05077527780261      0.19267104069147
  O   6.16346512281389      0.37930123879195      0.60590920749963
  N   -0.48252647085389      2.22500337576753      0.22391129585125
  N   -0.95179029063696      0.58779419036478     -1.84122342965542
  N   1.51418422829674      0.15593989512552     -0.44607426365333
  N   -1.16063358046318     -0.07673868199790     -3.00925241204971
  N   -1.14849741421238      2.11298732399585     -3.39038451003684
  N   -1.20618815284879      3.38457285393101     -4.01670913254412
  N   -1.32551059759156      1.63702589404962     -6.22103571935428
  N   4.06031254636312     -1.97438908559014      2.14561719193371
  N   2.50636827012767      3.34146031553866     -0.41080478780389
  N   6.75504367574751      3.49421151294937     -1.52121567660222
  C   -0.23870314835540      2.96690774380333      1.31540669202677
  C   -0.17951709597692      4.36460365206848      1.26350401867319
  C   -0.36039763151698      5.00315617566411      0.03553674014203
  C   -0.60770719544311      4.23732358982368     -1.10858596120710
  C   -0.66606215288233      2.84692150724533     -0.97458325112919
  C   -0.91882576710388      1.90518076320015     -2.05976221684898
  C   -1.28515149991410      0.85310497373082     -3.95655749823095
  C   -1.47789431320558      0.58427856734499     -5.38248844173727
  C   -1.78158323958781     -0.71536763211826     -5.82232797476155
  C   -1.93222651635746     -0.92740312237452     -7.19408567133080
  C   -1.77802948917239      0.15392607841766     -8.07151889142692
  C   -1.47625227039196      1.41263350266178     -7.53777050982950
  C   2.61847532252160      0.16718164150703     -0.03100069956035
  C   4.03473075389743     -1.04919936152920      1.41783738873968
  C   3.55649758797230      2.81113285522708     -0.39008207062771
  C   5.89910228250858      2.90192402567135     -0.97255515333069
  C   3.89004049410551      0.05280116393661      0.53881875795055
  C   4.83760046017230      2.19718030791193     -0.34320087090878
  C   4.99072806171358      0.92619588185164      0.25038310899462
  C   7.34288010697016      1.19785099237011      0.84227201867394
  H   -0.08418774418242      2.41287922287040      2.23943580813309
  H   0.01712776676091      4.92962583567515      2.17077078870186
  H   -0.30147024169565      6.08648374360553     -0.04011637324890
  H   -0.72775472004592      4.68980307869243     -2.08784496967320
  H   -1.02859877913729      3.17107870884971     -5.01517516013461
  H   -2.18750754879922      3.68732168356472     -3.95949475312958
  H   -1.89003256270906     -1.51923912794257     -5.09940552563239
  H   -2.16747991945935     -1.91965282631796     -7.57324605349840
  H   -1.88800278346155      0.02828085717172     -9.14585410240415
  H   -1.34481454055580      2.27929951736965     -8.18380670639531
  H   7.85825350216162      1.39931739073208     -0.09998546436659
  H   7.06011554240802      2.13490354787600      1.33326199776529
  H   7.96372422647301      0.58578060221306      1.49997984766771
  N   -0.01554160893821     -2.07400461251630      0.11884801337263
  N   0.27244572058193     -0.31871105446844      2.12188861166707
  O   -2.32004679788431     -0.20906273544993      0.62450118463492
  N   0.53963579675428      0.41016557966064      3.23501240860898
  N   1.30171565062153     -1.65851411522132      3.51439696736156
  N   1.95336403181960     -2.80991268700668      4.01316056190020
  N   2.08837883427802     -1.03153495570485      6.20640065277371
  C   -0.19735801386144     -2.86976896342272     -0.94678241562463
  C   0.16932508384505     -4.22022474029039     -0.93194815070231
  C   0.73988673676459     -4.74906012284023      0.23130946045702
  C   0.94928905283482     -3.92093558039162      1.33947368077488
  C   0.55925896081571     -2.57890662663880      1.24428384070891
  C   0.71485928135809     -1.57310180699664      2.28797881192133
  C   1.17811242985978     -0.40158742437381      4.08138110134416
  C   1.64125668652076     -0.02626363396499      5.41753725287040
  C   1.59835724290207      1.31699800851684      5.82863012714818
  C   2.03867028484006      1.62541739839507      7.11693830756515
  C   2.50558513192882      0.59391772151519      7.94207076245253
  C   2.51155214636933     -0.71374269970553      7.44151415963088
  H   -0.63528391471960     -2.39546494643041     -1.82373505107872
  H   0.01010329537297     -4.83566559107986     -1.81357735499341
  H   1.02961037693178     -5.79650263223670      0.27714356499627
  H   1.39198544364412     -4.28756216681936      2.26022939870135
  H   2.07356702591748     -2.60593305623129      5.02033326216013
  H   2.88856663033510     -2.78890626597828      3.56449398289328
  H   1.22689720511719      2.07923364807386      5.14934153299829
  H   2.01862173049152      2.65362143004567      7.47217097684978
  H   2.85661483758228      0.79441994683639      8.95140774476079
  H   2.86412382576385     -1.54562918858697      8.04935892748177
  H   -2.97991641356129     -0.57477777819145      0.00246002403294
