36
Coordinates from ORCA-job CIDJUX-OH_1_5_tpss_d4_lanl2dz_631gpol_Mn2.opt
  Mn  5.17324745844246      2.22177594589148      2.75868582767567
  N   5.57342259453151      0.25631767184815      2.70956881490421
  Cl  4.32134364825634      2.88988285196431      4.90079645338587
  O   3.57455802736579      1.75879992715398      2.02757996675876
  N   5.38260628507542      4.26072796921331      2.31031995918588
  C   6.70495764596493     -0.21048137833773      3.18319047364865
  N   7.07669541720004      2.11998739580695      3.58069680421060
  N   5.97595431063932      5.98201293323889      0.80488264698470
  C   6.22362945539739      1.39975516328347     -0.32184079952697
  H   6.12364823931722      0.37686392587459      0.03573184733740
  N   6.39635051495742      4.04208492997932     -1.09823627241951
  O   5.15739477999530      5.30705575548582      3.21004296705394
  N   6.02435741238287      2.37007705835779      0.58678473370533
  C   7.57256125068375      0.85939961227656      3.70930373869864
  C   6.09742465892107      3.64273991870745      0.14371629844913
  N   8.72891445391833      0.52928082822792      4.28265890664721
  C   9.45385033598541      1.54884003012101      4.78737322806669
  H   10.39957687064268      1.27833066800315      5.25342886141422
  C   9.01865409476414      2.87814412314564      4.73140045382132
  H   9.60306056250388      3.68681455686683      5.15989433957030
  C   7.79267856051227      3.13061554024672      4.10976191623910
  H   7.35396973930409      4.12223964188533      4.03463336084981
  N   7.10827723235687     -1.49263195620720      3.20249098874900
  C   5.79678687129061      4.69254131921305      1.13931583612496
  C   6.61951122326964      3.05935641793088     -1.99282462766080
  H   6.86734359617398      3.37782467417657     -3.00405762936824
  C   6.53042564129531      1.70440346601717     -1.65222829315419
  H   6.69361941018926      0.92182070819264     -2.38763821028655
  O   4.68271808086803     -0.65072685991491      2.17538233544029
  H   3.91343900641395     -0.02120824581023      1.99153682260099
  H   4.71801691874024      4.82917064750213      3.97171431003789
  H   7.95200286519733     -1.71463508479763      3.72517503989271
  H   6.44129491093679     -2.23132001899809      3.00083176678876
  H   6.17835864860634      6.19484226315130     -0.16834461795149
  H   5.62933323663256      6.70801033647844      1.42423656100862
  H   2.84627604126696      2.04121726382476      2.62551519111693
