40
Coordinates from ORCA-job CIDJUX-CH3OH_1_4_tpss_d4_lanl2dz_631gpol_Mn2.opt
  Mn  5.49919165215307      2.58409901552425      2.57093900518103
  N   5.70683781500753      0.61354083259026      2.72191145982219
  Cl  4.56754707421054      2.93583947917062      4.64702369127519
  O   3.25663913360077      1.76840735745937      1.75857022157305
  N   5.58862390694936      4.51685653407344      2.28310492386052
  C   6.77415482417579      0.07055004784800      3.27113443879546
  N   7.51100577145525      2.32914702674919      3.51440208388633
  N   6.44022911426611      6.23672815316924      0.87760924049067
  C   6.23363512445397      1.58843868518118     -0.18020531623819
  H   5.97730296018119      0.60095305841588      0.19545018370584
  N   6.85146751240459      4.16158641784948     -1.01171562053380
  O   5.35868163968189      5.53680829569234      3.20531486544997
  N   6.07307980614890      2.62334845150827      0.69605343379079
  C   7.76598345968090      1.02835865898952      3.78893531824727
  C   6.37593457844346      3.88274262122580      0.20484553272035
  N   8.79697382303578      0.53894781580942      4.48579118997811
  C   9.64902366941648      1.45220230601720      4.98943485007605
  H   10.49303440474762      1.06286811258916      5.55606583776106
  C   9.45972489837573      2.82918278329480      4.80652704764546
  H   10.14439794415236      3.55684787980753      5.23286918764572
  C   8.35868387518913      3.23113328384324      4.04627356536942
  H   8.13289514348238      4.27735437298630      3.85116475000339
  N   7.01198845048844     -1.25001038366713      3.36009100264982
  C   6.12053140099064      4.95345528394340      1.14621050779343
  C   7.01939034693970      3.12660443414204     -1.84833876515370
  H   7.40899934816693      3.35856709127164     -2.83747421911135
  C   6.70031052492703      1.80485452594272     -1.46861965382320
  H   6.82686865874321      0.97316128040096     -2.15585066887339
  O   4.82183763907667     -0.34062841097041      2.19509839392240
  H   4.02632427866667      0.23151123527357      1.98760536138677
  H   4.93033196751043      5.04031908989466      3.95629490161157
  H   7.80033872247969     -1.53951840253383      3.93368942154174
  H   6.25742245303059     -1.90275968136804      3.17333519939059
  H   6.70727672734930      6.46003903203209     -0.07685309716636
  H   6.07985733404324      6.97141321814844      1.47733588740458
  C   2.03256333058196      2.03554860714006      2.51989761266284
  H   1.20326367148890      1.46025609360909      2.09362802686542
  H   2.24704572413536      1.71811283211441      3.54037814459814
  H   1.81614294945801      3.10836472071653      2.50655957159572
  H   3.11225834070980      2.04352824411501      0.83083248219884
