35
Coordinates from ORCA-job CIDJUX-oxo_1_2_tpss_d4_lanl2dz_631gpol_Mn2.opt
  Mn  5.10639131981377      2.25102283173571      2.58968811122910
  N   5.42188212380888      0.31547191103448      2.81482655466047
  Cl  4.61865856541824      2.47217470480870      4.81117586918324
  O   3.68880094255039      1.85534789164108      1.91990043797805
  N   5.14121439829233      4.19227845536563      2.43682801697956
  C   6.53270948296821     -0.17360083252464      3.31311092251833
  N   7.14985382625480      2.12777326585410      3.26649160609204
  N   5.66024252011168      6.03467991847009      1.03751222582117
  C   6.32451333864056      1.46479466604818     -0.07783848685671
  H   6.20559482378985      0.44275551357885      0.27118978465455
  N   6.53080095622125      4.12202296561690     -0.83179825589048
  O   4.70127468871966      5.12793558447788      3.35457636710927
  N   5.94611560844842      2.43638932889537      0.77294454799665
  C   7.53328259976389      0.86308317388475      3.58441759068062
  C   6.05571241896149      3.72257211265803      0.34851962162205
  N   8.69537200464753      0.50405991775015      4.13803459033975
  C   9.55404170417471      1.50348607266403      4.41291680015476
  H   10.49979044030289      1.21305720401568      4.86733805547876
  C   9.25272632423110      2.84442191921204      4.14150011960542
  H   9.94698758487351      3.64431151487297      4.38156309858654
  C   8.01383733587826      3.11792740879418      3.55763953760114
  H   7.68610574806097      4.12949778984288      3.33201411114000
  N   6.79842494520428     -1.47605503668225      3.54841870214547
  C   5.58632334628055      4.72283011971178      1.31392448873160
  C   6.91546241280359      3.14472298869502     -1.67640208700485
  H   7.29808071244779      3.46878125732836     -2.64254904337951
  C   6.82460413956639      1.78735442151323     -1.34232533384636
  H   7.12366370428167      1.00911421940034     -2.03833513945664
  O   4.42593084926057     -0.60797565815706      2.56852127864403
  H   3.67698622252982      0.00280671405455      2.31360975067495
  H   4.42041181348231      4.55002529741155      4.12211947774714
  H   7.63127917616561     -1.68262151070684      4.09383906030306
  H   6.02368270015945     -2.13223643717706      3.57972256512623
  H   5.91780878199758      6.31298013905819      0.09441439770996
  H   5.20893243988775      6.70341016685307      1.65409065592056
