34
Coordinates from ORCA-job CIDJUX_1_4_tpss_d4_lanl2dz_631gpol_Mn2.opt
  Mn  5.19138515795669      2.32584628000288      2.65088541571049
  N   5.43950103253124      0.40936390287380      2.88911816922066
  Cl  3.58053868413506      2.37934880785272      4.25904520033268
  N   5.09154678934075      4.24114435512000      2.36325788679312
  C   6.60676331084849     -0.09704948231375      3.24811101924889
  N   7.19368799011537      2.20627658943635      3.45437699101036
  N   5.84985815243189      6.05943867169038      1.03035179494930
  C   6.19622218251011      1.43759945426687     -0.08556445969870
  H   6.01108917996150      0.42281237068752      0.25567431841374
  N   6.61417201263018      4.07294491143558     -0.83359686844238
  O   4.67325639725680      5.20518883258535      3.27819190859093
  N   5.89093303297330      2.43099383364997      0.79125122436767
  C   7.61792267682395      0.91756683095162      3.57277508664455
  C   6.09441908945109      3.71901108926958      0.34396042779757
  N   8.81759276154272      0.50250546349861      3.99278814466887
  C   9.68100156532515      1.46760724184596      4.35598561396738
  H   10.65842776313093      1.13591215310189      4.70142235385895
  C   9.34343336741348      2.83001901188082      4.30084397040365
  H   10.04520878908336      3.59994090014267      4.60837721493833
  C   8.07239686616675      3.16117095760528      3.83204466616161
  H   7.72895000241276      4.19028366349175      3.75321094154701
  N   6.89864297219910     -1.40500082568676      3.33198092985340
  C   5.65647424424368      4.74824403525293      1.27468412045854
  C   6.92753471085578      3.07540053871900     -1.67636021535306
  H   7.34924803809738      3.36666315671571     -2.63627233149980
  C   6.71419283681110      1.72393517755911     -1.34333450894144
  H   6.95267483382099      0.92484967604651     -2.03910440931437
  O   4.45758861932125     -0.56615815560335      2.62933608038464
  H   3.64794888690825     -0.16846056175582      3.03221263513293
  H   4.06856720169554      4.68573484183642      3.87102220993312
  H   7.78665149324485     -1.66227062850273      3.75507341114782
  H   6.14517088408481     -2.08409346177594      3.27984520020576
  H   6.14369826937901      6.31665864768835      0.09166271762705
  H   5.35300020529639      6.74177172043061      1.59504313988064
