35
Coordinates from ORCA-job CIDJUX-oxo_1_4_tpss_d4_lanl2dz_631gpol_Mn2.opt
  Mn  5.19141593345238      2.24488250178784      2.61315058146475
  N   5.52906445584813      0.34773222372855      2.73452706329476
  Cl  4.55186287199701      2.50829368617249      4.78883468075826
  O   3.69030655516910      1.84930922898010      1.99077890104606
  N   5.23123546034001      4.21967452649339      2.40205091737390
  C   6.63059011650574     -0.14118217350226      3.26446189865147
  N   7.21230657172254      2.16926288363910      3.40150099607286
  N   5.76202151020009      6.02642204873202      0.96041995533748
  C   6.17316918476510      1.42213437757827     -0.14349625866960
  H   6.03189731503721      0.40717260991882      0.21684369980141
  N   6.40550499309838      4.06176766551773     -0.94022299759721
  O   4.87498521354804      5.17652135750614      3.33442655312849
  N   5.91884793563197      2.41253370967446      0.73307944277472
  C   7.59684048925732      0.89598058959969      3.66771340543448
  C   6.02576280401042      3.69114695289455      0.28280204117446
  N   8.72021640909974      0.51202686947790      4.27599352071971
  C   9.54208035884579      1.50461628373398      4.67309679083044
  H   10.46096843568580      1.19751178623974      5.16906899230209
  C   9.23226494091327      2.85500500530800      4.47249683851755
  H   9.89407859994513      3.64591153097643      4.81315797204022
  C   8.03031613183698      3.15077976363653      3.82184696573932
  H   7.69520415868906      4.16902432599866      3.64081110239317
  N   6.90536540953923     -1.44225933657618      3.43875619196015
  C   5.64560351637305      4.71943649247970      1.25794842091011
  C   6.68805825324948      3.06650901078107     -1.80339639733295
  H   7.00093585073134      3.36997735842048     -2.80071767970229
  C   6.57426955452193      1.71644862634840     -1.44879606555716
  H   6.78147465251354      0.92175686419106     -2.15931908551238
  O   4.57430713396662     -0.55854185171986      2.33426849533241
  H   3.83571719346406      0.10543523048804      2.10538321569206
  H   4.52578897524142      4.61925418355661      4.08587598236020
  H   7.73992888686346     -1.68318763260547      3.96824901442935
  H   6.16778736802077     -2.13106971095874      3.32122081390809
  H   5.95797719942970      6.27229398283552     -0.00638737025584
  H   5.31934556048598      6.71201902866718      1.56517140117940
