38
Coordinates from ORCA-job CICWIV-OH_0_1_tpss_d4_lanl2dz_631gpol_Co2.opt
  Co  11.31769199584680      6.45722410710692     15.13914832247176
  Cl  11.31268868767498      7.60101998134988     17.09334713319829
  Cl  9.10914544504421      6.02348052440260     15.40751097468554
  O   16.61394333729473      5.54940162948131     11.64448798149299
  O   14.63672736926881      4.43017738517571     10.04515916632455
  N   13.23900743007009      6.71579167068536     14.85293238534885
  N   11.40106877666953      5.60123470470757     13.38758416122001
  C   14.11935628170104      7.37777257272798     15.62598282487142
  H   13.69253635157585      7.83988227564820     16.51449733882720
  C   15.47860519025927      7.46921064620096     15.28923153519567
  H   16.14885074631544      8.01959332754017     15.94476823973019
  C   15.94457029631822      6.86298273612018     14.12228557607816
  H   16.98895308967055      6.90503267421731     13.82079812096825
  C   15.02698618370949      6.19132725102643     13.29894816667164
  C   15.44224801059370      5.56572930160165     12.01383776283672
  C   14.33828089387000      4.94613932522075     11.12033292879834
  C   12.93733516077623      5.00437416474247     11.61099125229032
  C   11.86205184394127      4.53592978014525     10.83787105891938
  H   12.06587891967345      4.11271913161409      9.85669429559049
  C   10.56814750014319      4.65395509492706     11.34549916831691
  H   9.70486529396940      4.33371500803379     10.76764657475746
  C   10.36804659408622      5.20081025592463     12.62284478378096
  H   9.38703825230647      5.32855207438312     13.07639824282370
  C   12.65444900537705      5.54622084894834     12.87727406583611
  C   13.68126404123125      6.14975149725057     13.70171903192446
  N   11.73610527230396      4.71685371467523     16.08392431536344
  C   12.60819655415229      4.66829666863759     17.11410091805685
  H   13.03273078204966      5.62087770502371     17.41517032005363
  C   12.91088273383199      3.48095810131362     17.78206648295185
  H   13.61369969160660      3.49862636839429     18.61154486545174
  C   12.28994650826211      2.29542762978151     17.37576172013265
  H   12.50202227769574      1.35489129880298     17.88069621629802
  C   11.38042222841184      2.34743867748662     16.31409163528507
  H   10.85955905985978      1.45782957992123     15.96832131172006
  C   11.12730583773843      3.57338643048619     15.69855298118918
  H   10.40077880555826      3.67201434367198     14.89870102963145
  O   10.97005120801191      7.98124574054197     14.17187124034252
  H   10.42196234312913      8.50949577208040     14.79351587056304
