36
Coordinates from ORCA-job CICWIV_0_2_tpss_d4_lanl2dz_631gpol_Co2.opt
  Co  11.30004608228881      6.44654292076603     15.20977137952960
  Cl  11.31620117706032      7.58432241548439     17.14798265296110
  Cl  9.06785582568829      6.20943094566636     15.33258075679915
  O   16.59656305339654      5.69593996770295     11.66927732068815
  O   14.65607887810287      4.48667895171065     10.10637988425202
  N   13.17959411255162      6.84215172116818     14.85817112941777
  N   11.37154707694435      5.71238208311105     13.40248191943190
  C   14.06869537479674      7.50323239054049     15.64033285153886
  H   13.63955611801294      7.94441244353990     16.53813049348652
  C   15.42588811991195      7.60301513411376     15.31393407381721
  H   16.08936925662853      8.14499080806095     15.98340652111043
  C   15.90661420956128      7.01247978591616     14.14172055650562
  H   16.95308076666003      7.06136947872155     13.84928506031503
  C   14.99681867291383      6.34121969271028     13.31273902400456
  C   15.42802883081810      5.70077024711782     12.04239834157748
  C   14.33693419381637      5.02050462203849     11.16375733491457
  C   12.93301707996309      5.05304406801294     11.65131748801833
  C   11.88382219243948      4.50046445761979     10.90337123316706
  H   12.10433858889493      4.03435054807879      9.94571000961959
  C   10.58707425461933      4.57997915038849     11.41898996179913
  H   9.73838352270246      4.17735343489568     10.87149999700964
  C   10.36536660160151      5.18834989247165     12.65959160299975
  H   9.37794926660959      5.28118914488344     13.10819941860022
  C   12.63489528683690      5.65221309682812     12.88848747168111
  C   13.64662553425332      6.28414690850573     13.70294218373525
  N   11.76457539112054      4.58007409768538     16.07081656279752
  C   12.69364780798404      4.48204367112542     17.04409644980625
  H   13.21498248786980      5.40356562210135     17.29049917447569
  C   12.94809819060620      3.28733422825319     17.72040063243500
  H   13.70400406644339      3.25951590589522     18.50197150900872
  C   12.20734650570644      2.14902635514381     17.38208032329153
  H   12.37717274324077      1.20396746348765     17.89487030823960
  C   11.23480352126124      2.25277091653885     16.38101387565253
  H   10.62376017807782      1.39987046660382     16.09439187244075
  C   11.04310545412201      3.48505454889066     15.75329682829408
  H   10.27785957649415      3.62984241422082     14.99490379657779
