42
Coordinates from ORCA-job CICWIV-CH3OH_0_4_tpss_d4_lanl2dz_631gpol_Co2.opt
  Co  11.28191508777025      6.25132421148587     15.09270719526511
  Cl  11.51654047448056      7.38066229797102     17.15966945966735
  Cl  8.87230887155995      6.03947181146278     14.64379264234699
  O   16.66967072804972      5.98733005997020     11.16067964195934
  O   14.94858916236273      4.22956595503280      9.88818213185480
  N   13.35198790448658      6.68997072086785     14.55617983686178
  N   11.67340246643329      5.07148876451284     13.29215617806133
  C   14.16166643587175      7.52886050143312     15.23374117834491
  H   13.73169334265526      7.92213175899491     16.15514045099769
  C   15.45123398364534      7.85602064248833     14.78847444496913
  H   16.06316761246070      8.54038239553899     15.37103195784112
  C   15.92463802018949      7.28844762612581     13.60543069375728
  H   16.91744366364086      7.49971532301412     13.21342502784544
  C   15.09182949490670      6.40854642317713     12.89538355321485
  C   15.55972114416939      5.77161016982076     11.63638860670005
  C   14.59055907861967      4.79212619144446     10.91807358327634
  C   13.25310327868506      4.57549090435885     11.52638909532895
  C   12.32625805263492      3.70561541533060     10.92996262668002
  H   12.60609508993540      3.19246995757090     10.01224116449977
  C   11.08075754592866      3.53184709695060     11.53352837195804
  H   10.33244031172044      2.86963676968552     11.10512835436597
  C   10.79087411535703      4.23638709981867     12.71112597818508
  H   9.82644074581588      4.17332491047439     13.21145346769884
  C   12.88220901506539      5.23688490727510     12.71470241452798
  C   13.80545090650075      6.14280904957818     13.40569300008534
  N   11.44097630107733      4.39420270776295     16.14583408789714
  C   12.65535751367353      4.00642674311664     16.58886203366583
  H   13.48705463291986      4.64830468235064     16.30738386712644
  C   12.84437256909721      2.86904112827192     17.37438940036349
  H   13.84412979360076      2.59964484240669     17.70772117662552
  C   11.72648213515028      2.10245307770301     17.72613227103955
  H   11.83683934386775      1.21219303327158     18.34298108499419
  C   10.46543565073350      2.50939838919379     17.27858670919270
  H   9.56709020788158      1.95346586267922     17.53726547626697
  C   10.36227877965189      3.66056528875929     16.49235229494402
  H   9.40874975382024      4.03898589132061     16.12924651924227
  O   10.91147801576032      8.06077314544010     13.85094978989555
  C   11.05167048087047      9.36869211341907     14.45683683505374
  H   10.65925124671121     10.13275719749763     13.77216683025308
  H   10.54583682483330      9.40609448331826     15.42766039120217
  H   12.12338528369958      9.52692915430031     14.60515550974882
  H   9.94482493370372      7.84438129480377     13.80657466619332
