36
Coordinates from ORCA-job CICWIV_0_4_tpss_d4_lanl2dz_631gpol_Co2.opt
  Co  11.28558551419526      6.00391068481433     15.20602111570260
  Cl  11.75413928385017      7.94631389393840     16.40346365325049
  Cl  9.01018018489841      5.57063647232246     15.40118625944225
  O   16.40529009369023      5.98677134273333     10.94415628463705
  O   14.24170264515770      5.50090960256578      9.28306325648189
  N   13.40813256546314      6.03695126142785     14.69064174833084
  N   11.34405530644077      5.65085707714642     13.10672529910929
  C   14.40683311167837      6.29415195060069     15.55684243716345
  H   14.10075687132287      6.41075262195598     16.59328135797976
  C   15.74017653570335      6.42852036160718     15.14505487956510
  H   16.51347148067908      6.63527972204252     15.88070961110134
  C   16.04831953341552      6.30263270091943     13.78838530872738
  H   17.06492535934117      6.39964770194702     13.41300699942455
  C   15.01136401315662      6.05050173587675     12.87628568049361
  C   15.27851347587959      5.90744939853110     11.42249261013590
  C   14.06327736397975      5.63624980686399     10.48870889364895
  C   12.71325045866573      5.55578029419774     11.10890960205124
  C   11.56737125179045      5.34873807134953     10.32406324146154
  H   11.68146165945840      5.23913479771624      9.24758050800267
  C   10.32200309703670      5.29649222460392     10.95150190541788
  H   9.40937753614145      5.14153365962561     10.38160303926466
  C   10.24776902168669      5.45408126652569     12.34281499325487
  H   9.30885499769387      5.42880143647317     12.89408042753132
  C   12.55448705060609      5.69876075382913     12.49965132656353
  C   13.70093417400328      5.92883885490898     13.38004229612697
  N   11.80194909504659      4.50435659938648     16.57693010137442
  C   11.25047330599187      4.63819937966092     17.80455405961290
  H   10.64231725692967      5.52784274788146     17.94992638502402
  C   11.45101065423731      3.69160003915031     18.81154440436928
  H   10.99451555047478      3.83920834534850     19.78711336544182
  C   12.23434231331801      2.56460712926955     18.53760191752358
  H   12.40168529156531      1.80769134661375     19.30179641178220
  C   12.79635866375570      2.42347644198709     17.26272738259666
  H   13.40732135338883      1.56140375965830     17.00490459065640
  C   12.55775107459113      3.41851797416724     16.31367611891336
  H   12.97374285476534      3.36299854235278     15.30975252783513
