37
Coordinates from ORCA-job CICWIV-oxo_0_6_tpss_d4_lanl2dz_631gpol_Co2.opt
  Co  10.97075089500156      6.83880661157838     15.31927281684427
  Cl  11.37713956130106      7.57318400831259     17.50423497735559
  Cl  8.78523254107320      6.00858831798021     15.41007127589297
  O   16.58722318165956      5.26017721935375     12.02760714841470
  O   14.64857295010940      4.02739342212263     10.47655615076531
  N   13.13987834256642      6.97341990689843     14.88071718988250
  N   11.27193860086239      5.80459048545844     13.37646619974876
  C   14.02799547222372      7.66600668781802     15.61666029903803
  H   13.60066822980494      8.22383214768436     16.44758997177468
  C   15.40425347578855      7.65066730418787     15.34343273735895
  H   16.08202090672291      8.22529117394475     15.96976859687627
  C   15.87167366380325      6.89180089527152     14.27161209878275
  H   16.92772745919908      6.83157166159107     14.01676933245885
  C   14.94626502156420      6.19068211226597     13.48150529327940
  C   15.40227335946672      5.38734596225493     12.31710998119415
  C   14.31702539379079      4.69764214795066     11.44853495829556
  C   12.89551488716932      4.89078171110319     11.83796990574528
  C   11.86178726522725      4.34970070665959     11.05637948374356
  H   12.12246830602982      3.78057373405576     10.16646160623458
  C   10.54037920294342      4.57379805378189     11.43922901934786
  H   9.70786038470616      4.19063842966952     10.85446037459884
  C   10.28580108245259      5.30919120648350     12.60699105393882
  H   9.27809535618721      5.50807828152861     12.96673225846134
  C   12.55305704191373      5.62192853125733     12.99287847671929
  C   13.57997588240147      6.26871655420661     13.81759173509150
  N   11.67866479886612      4.72287798241048     16.04515222927155
  C   12.70353160691303      4.59856339244942     16.91220310959094
  H   13.14188086961054      5.53316121312865     17.25381218423890
  C   13.15846618766811      3.36168307601009     17.37618300603925
  H   13.98731874014106      3.31841030778052     18.07942916885943
  C   12.52126380882910      2.19890517810886     16.92870449890992
  H   12.84730116080963      1.21891555459690     17.27325740742607
  C   11.44759076028425      2.32281057391721     16.03976034193148
  H   10.90988601552036      1.44985004812690     15.67624803696238
  C   11.06004431032724      3.60035918541144     15.62742648633454
  H   10.21316640922944      3.75382382605687     14.96267283697055
  O   10.66820686783194      8.36643238858290     14.56254775162066
