48
Coordinates from ORCA-job BUKRAB-oxo_2_3_tpss_d4_lanl2dz_631gpol_Fe2.opt
  Fe  5.84421777592302      4.86303284210472      8.42478526490192
  O   5.71330756064763      4.82572463447559     11.28466312685496
  O   8.48166992692339      3.68574054445867      8.31127356754667
  N   5.45548607115932      5.65204986999057     10.16768305168647
  N   7.48307512390002      4.06949444896360      9.22819727598741
  N   4.72596856519719      3.22856907187505      9.05636900810963
  C   7.12364124101329      4.75803039615639     11.53779458461433
  H   7.20484528682355      4.09606109121094     12.40805811196174
  H   7.51384062790307      5.74984985606909     11.82223072523027
  C   7.97441355788118      4.21545878219334     10.41911672435573
  C   9.41012208031033      3.92316090938078     10.74923013390877
  H   9.59743113263929      4.05355103902741     11.81998283779549
  H   10.06594667649236      4.59824594803885     10.18213212883823
  H   9.67114672510648      2.89876517622551     10.45601546588715
  C   8.04730028227799      2.61226464078209      7.46786615191183
  H   7.65305915662987      1.77677803535976      8.06682137301203
  H   8.97168465226818      2.28736586962605      6.98010838532444
  C   4.88281989395500      6.78418665653242     10.41713266909834
  C   4.58730181003511      7.33374442238957     11.77337396711456
  H   3.49525431634926      7.39076904582725     11.90087990547769
  H   5.00926369023001      6.72411630378247     12.57387925625787
  H   4.96524639221581      8.36450293235628     11.83762134193254
  C   4.07959422416550      2.38228452592152      9.52973597283806
  C   3.26787025766301      1.32994873872741     10.13063045023588
  H   3.38918951264401      1.35190249780463     11.22125443357319
  H   3.58323011861813      0.34944677482882      9.75198322337768
  H   2.21045179529815      1.48922056851570      9.88390393668492
  O   5.38416034541911      4.30431197348951      5.60858606222426
  O   3.51446575106649      6.69736429613771      8.43591860048867
  N   6.14035703975898      3.88968560645026      6.72280964168184
  N   4.15154255600186      5.66350449317657      7.72351478555380
  O   6.72765738020288      6.14577078624811      7.92586073046014
  C   3.97310481492419      4.17405630382482      5.84413055154550
  H   3.54091272922376      4.28101052507244      4.84449108430266
  H   3.73265327475072      3.17152710584464      6.22926980529627
  C   3.41767012052600      5.25907547202986      6.73643550364595
  C   2.06994768556867      5.84536155378044      6.43308837547519
  H   1.56196038773819      5.26686804326750      5.65515005165544
  H   1.44622971303191      5.88594342184979      7.33374964770348
  H   2.19401959705399      6.87967931893790      6.07828615839357
  C   4.43773827115066      7.52846759666657      9.17095995129594
  H   5.29041928564628      7.81770711859552      8.54419564490581
  H   3.83892844737263      8.40455611994645      9.43198509486905
  C   7.04684430563040      3.02185222845627      6.40750638486074
  C   7.18978895532348      2.40842818726454      5.04797948743517
  H   7.87592596639439      3.03101033260543      4.45129235698891
  H   6.23622082645695      2.35957478555667      4.51792622793961
  H   7.63627409248790      1.40987910817424      5.12934077875950
