53
Coordinates from ORCA-job BUKRAB-CH3OH_2_3_tpss_d4_lanl2dz_631gpol_Fe2.opt
  Fe  5.80756344169455      4.55216921912519      8.59708357539179
  O   5.51646515312361      4.51965016759270     11.38272209108364
  O   8.52243722155820      3.52612758687406      8.56445166018822
  N   5.39904460921129      5.40968314042511     10.27117736371629
  N   7.43300990336068      3.81931547903309      9.44895420361530
  N   4.37844468528570      2.91257113801779      9.11143661142026
  C   6.89270252335946      4.38432812105331     11.75240778417324
  H   6.88517027143103      3.64735637774215     12.56493211573170
  H   7.27809986089632      5.33544070803316     12.15947119457933
  C   7.84783344105638      3.92554931007570     10.67494419773649
  C   9.26464854404875      3.67039464995259     11.10123939263058
  H   9.35312512304621      3.69746429402219     12.19221166472021
  H   9.93226789344984      4.43131071408909     10.67351606629148
  H   9.60767944565737      2.69723447865083     10.73005476795041
  C   8.18743202594353      2.43108129807917      7.69234737289352
  H   7.86083193921961      1.56213057270702      8.28310047185187
  H   9.14268739752098      2.18854294207786      7.21481884037556
  C   4.87205542965211      6.56390743001782     10.52437055003119
  C   4.44945755165424      7.07106172537719     11.86368095036773
  H   3.35944427774956      7.22485086992192     11.85544588353094
  H   4.70631492859022      6.37937257118695     12.66794390102296
  H   4.90403781006900      8.05494294002652     12.04853922093254
  C   3.67954795835151      2.14445799267702      9.64679974201601
  C   2.80028166129095      1.18923935024778     10.31559156403991
  H   2.75695139511877      1.41582570020471     11.38828676449446
  H   3.17844307838013      0.16879084893126     10.17743424035273
  H   1.78885546885852      1.25682827308961      9.89565126412054
  O   5.46731134529737      3.94039866854340      5.75880755295107
  O   3.74485040890190      6.73168808008506      8.37204558978714
  N   6.22973795757501      3.60694414390497      6.91240828425515
  N   4.31507596281357      5.58710161764828      7.76508962056563
  O   7.31209040153884      6.16945392194397      7.84004170646700
  C   4.05138794695826      3.95949364964473      6.01343281458995
  H   3.62425287790545      3.98690611849028      5.00643773662022
  H   3.73816458380922      3.02908126900214      6.50886153380491
  C   3.57301008684106      5.17164037668786      6.78461784702747
  C   2.27940190838215      5.82910657504975      6.40470759627690
  H   1.75676131752453      5.25316481691716      5.63501711017049
  H   1.63239994459126      5.94722041827623      7.28275658958938
  H   2.47748668492011      6.83950740461099      6.01686479289798
  C   4.66123454856368      7.39220672476900      9.26873436739329
  H   5.62041763541734      7.58378535438267      8.77316655217858
  H   4.15778846361587      8.33447093978437      9.49816507447937
  C   7.16589851711821      2.75794591968399      6.62243433569022
  C   7.32043317738831      2.08569492910856      5.29067423954422
  H   7.91852116760106      2.72277069099257      4.62034305142542
  H   6.35185438396251      1.91944222869500      4.81224334931252
  H   7.85436681933745      1.13486514348867      5.40659555259839
  C   7.19938627929470      6.81729017279488      6.53845852603709
  H   8.06231562410689      7.47173822478700      6.37630103134978
  H   7.11699868410425      6.07531614317480      5.73573775267107
  H   6.28714191145730      7.41746145445978      6.57241254952210
  H   8.14645832139433      5.65310711384141      7.84028138753428
