53
Coordinates from ORCA-job BUKRAB-CH3OH_2_1_tpss_d4_lanl2dz_631gpol_Fe2.opt
  Fe  5.82944040504268      4.60486440285338      8.57932962552579
  O   5.50581411950647      4.60760170849876     11.40138964277283
  O   8.50023478396511      3.64051165076483      8.55413403864555
  N   5.44308541001095      5.46922956638019     10.26275075678002
  N   7.39103715290040      3.86779760120143      9.45159134274746
  N   4.69085281976498      3.20498529845523      9.13678518533829
  C   6.86103266319610      4.34845793202057     11.77173165572268
  H   6.78787484276183      3.58527589820277     12.55614344765921
  H   7.31658122859119      5.24975440727303     12.21948823615967
  C   7.79613959894577      3.87849047926098     10.68369266239069
  C   9.20009330313537      3.54774671981582     11.10820098871445
  H   9.26238425120551      3.46851544435651     12.19873487192252
  H   9.89423399005223      4.33202081539408     10.77506240235552
  H   9.53252828754818      2.60677728241923     10.65609595509554
  C   8.22814606527458      2.52956608792413      7.68049969876230
  H   7.99819897014968      1.63196633112578      8.27459217001237
  H   9.18329982133642      2.36835780117729      7.16795661154702
  C   4.89768771383217      6.61941449616336     10.49382294138618
  C   4.45995485579517      7.14478809028628     11.82251902152975
  H   3.36324364112803      7.24101781748816     11.82382010768376
  H   4.76002094179869      6.49334877888420     12.64468377173779
  H   4.86528787699837      8.15570994205789     11.97162227908106
  C   3.98743119109123      2.37024828027754      9.55147191273876
  C   3.10337082363023      1.34029369255442     10.08934345297963
  H   2.98773315491424      1.48466185631816     11.17127163229715
  H   3.52443871167440      0.34429275335655      9.90348373306355
  H   2.11595491531674      1.40560700055632      9.61498179054964
  O   5.41069522486314      3.87340109269421      5.77211874726699
  O   3.77378968753121      6.74115831671954      8.33119278998946
  N   6.21286223984746      3.63168873995016      6.92532703312957
  N   4.31792308226064      5.55693142495857      7.76568994583386
  O   7.12615717706317      6.04687009438978      7.98177909329959
  C   4.00329392922350      3.89290581266034      6.07167803634498
  H   3.54385098586190      3.87333880676165      5.07904701687209
  H   3.71637502182094      2.97998783188753      6.61256886607161
  C   3.55342154856307      5.13660584915369      6.80474987375935
  C   2.28163440629088      5.82707519187866      6.40623763457950
  H   1.73951429958984      5.24371852796181      5.65576504836092
  H   1.63892088544680      5.99187164337729      7.27987993758463
  H   2.50817685736904      6.81820460065659      5.98611416897911
  C   4.66511302680987      7.42826590131788      9.23262012909300
  H   5.61557927085256      7.67010026219454      8.74570126874369
  H   4.12168434835483      8.35005522368458      9.45527947779083
  C   7.14818942831919      2.77477782317822      6.65085280038557
  C   7.25060888391942      2.01617386529884      5.35940619895482
  H   7.74280356277462      2.63721384727023      4.59542192797004
  H   6.26173267885819      1.74778968917001      4.97704793144056
  H   7.85770693270971      1.11377676021798      5.49827315097761
  C   7.00575516626981      6.66731903324641      6.65404425642975
  H   7.87443021067216      7.31600327188117      6.50921809507437
  H   6.94016369269282      5.90399858524438      5.87386398665194
  H   6.09046402845869      7.26009960799368      6.67070744459463
  H   7.98263188400879      5.55679606118453      7.99546520462107
