53
Coordinates from ORCA-job BUKRAB-CH3OH_2_5_tpss_d4_lanl2dz_631gpol_Fe2.opt
  Fe  5.80195072938171      4.64698634420344      8.56620101130187
  O   6.09331911362490      4.97499157823799     11.48925401708259
  O   8.36321277950977      2.93896700645369      8.54080984467064
  N   5.75827228453307      5.80700902349201     10.38223100376220
  N   7.54694769352983      3.69985430968746      9.43098184249366
  N   4.45647557391984      3.24126326323167      9.51985989111990
  C   7.51361319314733      4.83233385802327     11.58216254097211
  H   7.66044832938293      4.32408878132111     12.54323558575050
  H   7.99797971079271      5.81972653841944     11.65262890115506
  C   8.19858964281906      4.01151165823887     10.50672287496549
  C   9.62204945446984      3.60515503132220     10.76459667312153
  H   9.96166305307596      3.95015127849956     11.74655168488293
  H   10.28632329166147      4.01143253280297      9.99046292163949
  H   9.70823272623241      2.51145586260051     10.71409906968655
  C   7.52734041799039      2.05131170316612      7.75585317497179
  H   6.72781246238053      1.64836225007093      8.38786958241236
  H   8.20609510619025      1.24872726440102      7.45495846233593
  C   4.65629330605243      6.47990161943344     10.56276374026472
  C   3.80294585866067      6.46942619132911     11.78907235967477
  H   2.81254188487902      6.06598452109576     11.52864926062405
  H   4.24273662529159      5.87640350473855     12.59259407306388
  H   3.63938970044770      7.50070541264651     12.13218075211079
  C   3.74878653737547      2.52186875960754     10.10592373157677
  C   2.86963481200086      1.61957321062414     10.84175956648279
  H   3.16083340990649      1.59962951244415     11.89948702159767
  H   2.94600202867260      0.60629269333983     10.42759678798469
  H   1.83081587134984      1.96313690292431     10.75933174716693
  O   5.49173360002171      4.24598033660919      5.63426813520385
  O   3.32308985518303      6.48398400137764      8.51984421058523
  N   5.94647526937053      3.52464750630666      6.77770538716396
  N   4.08666146394648      5.60770694714334      7.69907457375181
  O   7.11053085770192      6.17407951457115      7.83737380308523
  C   4.05908265678885      4.33251678101260      5.62917835234541
  H   3.83675508763262      4.72715249468739      4.63048021843615
  H   3.61561020791702      3.32714091193394      5.70120894397396
  C   3.41651197351166      5.25046628024476      6.64972409054285
  C   2.01119979034433      5.70229132956997      6.37265322144517
  H   1.61168082441813      5.22716147439946      5.47083516185510
  H   1.35837566490446      5.47762824741100      7.22524877820235
  H   1.99694454141331      6.79315769564149      6.23767479234886
  C   4.22286541012909      7.27346759362038      9.34213863046163
  H   5.08114797547613      7.59039051599278      8.73953545369400
  H   3.62162181161138      8.13865663030028      9.63520831409135
  C   6.95720028013290      2.74671797586189      6.52556709873909
  C   7.58179153392920      2.51552262775897      5.18698496466786
  H   8.62217517471935      2.87540501164360      5.20558203594117
  H   7.03735651981257      3.01622669792023      4.38485150184852
  H   7.63123104826552      1.43507065850790      4.98933615296979
  C   7.98744460311519      6.13422788704977      6.66461562747150
  H   8.38036807234554      7.13807647223886      6.47854741148127
  H   8.80253703899389      5.42062847455649      6.83066677738023
  H   7.35209912276828      5.81946782618846      5.83650667742449
  H   7.58678401826766      6.59340749509594      8.58260156201687
