48
Coordinates from ORCA-job BUKRAB-oxo_2_1_tpss_d4_lanl2dz_631gpol_Fe2.opt
  Fe  5.84569427422088      4.86583514385971      8.42225295466564
  O   5.70648227520965      4.82401068611151     11.28156715511400
  O   8.48407655577093      3.69942151333247      8.30953048756076
  N   5.45620097306710      5.65313407829909     10.16530483649068
  N   7.48242680236757      4.07425138888161      9.22702659610631
  N   4.72813091882641      3.23330747733515      9.05362072147322
  C   7.11560882853939      4.74917762304706     11.53952749543478
  H   7.19108377550748      4.07997053723223     12.40475390254323
  H   7.50800180726293      5.73728385425614     11.83363546024461
  C   7.96995972073918      4.21367374530747     10.42012114375030
  C   9.40495289126842      3.92101093918349     10.75310798261283
  H   9.58748536377434      4.04022620099103     11.82597522299378
  H   10.06151639018449      4.60393640710306     10.19632917025272
  H   9.66981450717506      2.90064091621637     10.44972846441442
  C   8.05827287830791      2.62456393292201      7.46375562974176
  H   7.67638713845226      1.78196135748768      8.06085392971102
  H   8.98434216985908      2.31238275863412      6.97081232940269
  C   4.88557344486996      6.78658093287213     10.41392595346691
  C   4.58462212688120      7.33427779976388     11.76966659358423
  H   3.49211513198820      7.39634024317158     11.89070340249967
  H   4.99885750717112      6.72069574974911     12.57117315742415
  H   4.96706373993525      8.36305707444160     11.83872129048715
  C   4.08408887084698      2.38381306596942      9.52465971890644
  C   3.27308171792019      1.32938935834114     10.12290392913544
  H   3.39347704103034      1.34918900346098     11.21366221729447
  H   3.58941789877168      0.34983635082919      9.74266993092740
  H   2.21566135307922      1.48815756983638      9.87583594687162
  O   5.37521531760656      4.29296591832478      5.61151084041017
  O   3.52291262854918      6.70984065943298      8.42858096101718
  N   6.13932393152204      3.88911343894585      6.72396916901918
  N   4.15327954223095      5.66742600369233      7.72286412348029
  O   6.72929157360342      6.15051959059067      7.92277396366274
  C   3.96522695173285      4.16478815805219      5.85586732223098
  H   3.52814252260637      4.26294554937641      4.85747320299436
  H   3.72706387634041      3.16577606869069      6.25102693916717
  C   3.41506582929740      5.25830398690147      6.74107435278197
  C   2.06884938515795      5.84736411989740      6.43684675355456
  H   1.55528035350567      5.26353924752934      5.66662617183805
  H   1.44877868848463      5.89994623849635      7.33938744057162
  H   2.19621812961093      6.87751102484169      6.07117022482289
  C   4.44998567715754      7.53417442943747      9.16640991298193
  H   5.30703341469419      7.81641315045180      8.54217540997857
  H   3.85715395858086      8.41504576414810      9.42492773070862
  C   7.04852195571295      3.02414556023074      6.40864568352287
  C   7.18505637909160      2.40336820698480      5.05172774939172
  H   7.85634413007093      3.03051100294106      4.44313576182549
  H   6.22637463763131      2.33907487527973      4.53249270286584
  H   7.64468501378470      1.41100129711827      5.13468796006297
