47
Coordinates from ORCA-job BUKRAB_2_5_tpss_d4_lanl2dz_631gpol_Fe2.opt
  Fe  5.46982750899709      4.24254110128652      8.65987865774673
  O   6.19486217863547      5.14669850087738     11.36430096596284
  O   8.26436985737796      2.80122663220076      8.54566475163992
  N   5.51505291417638      5.65672375298130     10.20694876402147
  N   7.47780253770433      3.69529882123735      9.32481397830097
  N   4.22607781997441      2.79067141848024      9.42114392568576
  C   7.61459599931556      5.23257973766266     11.20252929493066
  H   8.00063559682147      4.96460452838910     12.19434461797310
  H   7.92458697266997      6.26854863385075     10.98890288140615
  C   8.23523486099874      4.29896126788151     10.19056535720644
  C   9.72087573087017      4.10265876338391     10.26960508005132
  H   10.17321568996926      4.80221836561941     10.98005910844468
  H   10.17916920935375      4.23061666485089      9.28133062564059
  H   9.93968822873596      3.07515225373832     10.59493690330329
  C   7.43397399897456      2.02149594220881      7.66025950619840
  H   6.55401321311228      1.64762554583395      8.20123285610659
  H   8.07131068151328      1.18496596915222      7.36264290373655
  C   4.74405060185795      6.66204316904810     10.48933276788587
  C   4.67966963602902      7.35435890744832     11.81538430661326
  H   3.78998876930717      6.99857161616671     12.35920828557032
  H   5.55885566872152      7.15438975560354     12.42972657596164
  H   4.55076064334161      8.43454732928668     11.66514313633198
  C   3.53801842014287      2.01978566111445      9.96632075907638
  C   2.68256079448054      1.05866814863931     10.64707287651122
  H   3.29727137599388      0.39171461307834     11.26547746971691
  H   2.13147725951539      0.46396375857675      9.90706788030983
  H   1.96873871447834      1.59203165602270     11.28823316138302
  O   5.78113896639911      4.60761737629700      5.69564253182824
  O   3.17625600661470      6.16986460478603      8.61151679730507
  N   6.03525060204515      3.65391153673823      6.71998378936753
  N   4.10099678861484      5.55940219729662      7.70471021891513
  C   4.37481782585851      4.72214539779115      5.45077013286164
  H   4.31890264046791      5.34528627595498      4.54960202383552
  H   3.93885316410048      3.73930179645655      5.20948005008479
  C   3.55858247981631      5.38597539786907      6.53726165050293
  C   2.15865324979281      5.80327840896297      6.19364601502286
  H   1.92794599314611      5.58792603763727      5.14552985942508
  H   1.43593785441949      5.28584291402076      6.83818134543380
  H   2.03656934986167      6.87871554640615      6.37895944469494
  C   3.82631772810146      7.18323357474933      9.39120028975496
  H   4.37438576013586      7.88419749715287      8.74385611700100
  H   2.99112230429651      7.71890851031157      9.85385684388330
  C   7.04651987566053      2.87769592159273      6.46761464351143
  C   7.85566882017226      2.85293897319877      5.21445084495172
  H   8.86996394892981      3.21847475471176      5.43948436889023
  H   7.41821156516158      3.47468647078555      4.43153865837223
  H   7.96452019333543      1.81663429266026      4.86558697664088
