47
Coordinates from ORCA-job BUKRAB_2_3_tpss_d4_lanl2dz_631gpol_Fe2.opt
  Fe  5.73754313311660      4.66252137718303      8.50736849811422
  O   5.90896730385678      4.89666838785374     11.33166619398818
  O   8.41616685915704      3.36533660666863      8.35077622023927
  N   5.44762300100524      5.60985797500108     10.18663480915606
  N   7.50493374054100      4.02347599506061      9.21718983491389
  N   4.57560409709808      2.97914148854922      9.16434853524427
  C   7.33234183671444      5.00905893665844     11.43339134765418
  H   7.57098960199680      4.50230737402698     12.37637205134752
  H   7.63921743235855      6.06483294684439     11.52526386735433
  C   8.10665227083746      4.34107381794775     10.32628513563117
  C   9.55779051760320      4.05640361664276     10.57903092286885
  H   9.86766869550648      4.44803651354894     11.55323088782599
  H   10.18121322947934      4.49749633645822      9.79101941073456
  H   9.73161295855523      2.97133224989710     10.55518592985714
  C   7.74431118977614      2.34043337632761      7.59660815756817
  H   7.07472175159691      1.75988084995202      8.24568058338056
  H   8.55587789837860      1.70157024417433      7.23792957358181
  C   4.80773680511206      6.70145014203637     10.46948256316783
  C   4.63018069545686      7.28788128578154     11.83196365030369
  H   3.57313646716978      7.18333780554292     12.12403999494104
  H   5.25150213827788      6.80151165847749     12.58501622387057
  H   4.84093968998696      8.36629832604882     11.79768379234427
  C   3.91051490076504      2.18080925865759      9.69846020633922
  C   3.07620638176905      1.19041250459056     10.37226098563905
  H   3.37567045759601      1.11375668219643     11.42533425893557
  H   3.19260473379882      0.21026483028391      9.89320414748398
  H   2.02318940870443      1.49457555566297     10.32053971937737
  O   5.66967649532525      4.60550837863750      5.62353731047494
  O   3.34369113103319      6.41997161146792      8.55562520485551
  N   6.18453408529383      3.91070770388825      6.75287560799212
  N   4.16057012412582      5.60713863389219      7.72632580295145
  C   4.24241142785018      4.51026871978612      5.57218677307308
  H   3.99258851709783      4.92170122018201      4.58742572607796
  H   3.91276010870972      3.45891772101443      5.60293041280149
  C   3.53234270599692      5.32592484897376      6.62328540766899
  C   2.14058202439184      5.80003402282364      6.32946615247620
  H   1.77690170927571      5.37962626431414      5.38645328965998
  H   1.45652895948562      5.53104056253667      7.14348852443807
  H   2.13408742760653      6.89739629260279      6.25513463752142
  C   4.13953417301881      7.36976542358636      9.28186789614053
  H   4.87168160210536      7.85381115672429      8.61983605444643
  H   3.41537858555143      8.11484072581092      9.62348218722084
  C   6.99986651606465      2.95554217519145      6.42914427614704
  C   7.29958056497985      2.49816877669685      5.03874732167023
  H   8.28757887490933      2.88750554562308      4.74384579950201
  H   6.56161791914725      2.84888384697459      4.31574529648644
  H   7.37046985181576      1.40222022719926      5.01762881653204
