56
Coordinates from ORCA-job ETIGUK-CH3OH_2_2_tpss_d4_lanl2dz_631gpol_Mn2.opt
  Mn  2.73592191595588      3.17578506140659      0.93103585548784
  S   2.93961393672153      0.86387655354110      0.86292434396597
  S   2.83084959039443      5.47836704929671      0.64938382348188
  O   1.45072116180193      3.16574583057820      2.47810474400941
  N   4.24571624859098      3.48779818596910      2.23449364944562
  N   1.20187358829653      2.86395314757968     -0.35031580155606
  N   4.03792168885007      3.13422607901112     -0.59266955408421
  C   0.30624873522696      3.81703339247048     -0.66539611233170
  H   0.37574351945993      4.74447133613535     -0.09867103535947
  C   -0.67556309142445      3.67157672788167     -1.66612629344047
  H   -1.36134632210499      4.49185381179291     -1.86030539532708
  C   -0.73023641209151      2.49338602826236     -2.39059447384530
  H   -1.45916135658142      2.35817078985364     -3.18739870255007
  C   0.16196205055621      1.43649181230451     -2.06785024971063
  C   0.13506406727754      0.17253085648797     -2.72085255481424
  H   -0.57158818090867      0.01737380039076     -3.53375003394303
  C   0.96952841474627     -0.85338414884510     -2.31065732229442
  H   0.93052466013941     -1.82229082885943     -2.80231265473152
  C   1.84930448826118     -0.66403549339306     -1.21677240454629
  H   2.45094097854308     -1.49718097421989     -0.85809948916507
  C   1.93102252098816      0.57532306378933     -0.59594103239539
  C   1.10479328160105      1.65012049869213     -1.01045715735129
  C   3.30162575737648      5.39874855720320     -1.14531197381291
  H   2.34371107154752      5.31224036980587     -1.67633150610362
  H   3.76801769650324      6.34378449888200     -1.44427028180901
  C   4.18892346908426      4.21655632037826     -1.41181038228286
  C   5.10063844587915      4.22130831211428     -2.46971790544408
  H   5.19641286189134      5.10840537588779     -3.09102641655995
  C   5.86245791724365      3.07763166834029     -2.72589298800247
  H   6.56885745895195      3.05542841101707     -3.55222427342616
  C   5.69876205266038      1.96319203689455     -1.89804749607534
  H   6.27494089082713      1.05559564016158     -2.06063989000420
  C   4.79607149464251      2.02422597503950     -0.83432552641706
  C   4.64118602458157      0.87763477379410      0.12319049681393
  H   5.31235873429529      0.98273794953997      0.98660358759769
  H   4.84768695506236     -0.08928035013466     -0.34840001159600
  C   4.65785658160287      2.55301511151215      3.10804819102348
  H   4.05525756836779      1.64784840500619      3.15831637380057
  C   5.79366678180543      2.69672245269187      3.93079354938707
  H   6.06085203644466      1.89204883600964      4.61051432392822
  C   6.55123060343829      3.85170220163825      3.84134519485542
  H   7.44867631107533      3.98239647705611      4.44298179770664
  C   6.12962878843128      4.89313453407542      2.97180369775538
  C   6.80809515451739      6.13931173783997      2.86529533664200
  H   7.71962284092249      6.29006420319788      3.44027925298919
  C   6.30232699386443      7.15568082726792      2.07219330110026
  H   6.81708539579995      8.11135796017892      2.01090223039367
  C   5.08422949449879      6.97583424727751      1.37218795160083
  H   4.65723802216359      7.80440660264241      0.81009166481891
  C   4.43138353523618      5.75130593031584      1.41803050035488
  C   4.94126339801566      4.68397113439709      2.19976468704931
  C   1.26975681144234      4.25142708354139      3.44417532943907
  H   0.69180156870359      5.06601662984059      2.99429768983077
  H   0.76625994917445      3.85362391074615      4.32991659763591
  H   2.27573979641721      4.58757066404257      3.69984833154376
  H   0.59282205323111      2.72841893167192      2.30447641632211
