50
Coordinates from ORCA-job ETIGUK_2_2_tpss_d4_lanl2dz_631gpol_Mn2.opt
  Mn  2.69273970544458      3.14805089869600      0.93584518172515
  S   2.88141390828216      0.83291148369615      0.92066466024191
  S   2.71863507784228      5.45825508115036      0.69414458224636
  N   4.10736305177314      3.47368154554708      2.33009285238815
  N   1.09810739830825      2.83475497137733     -0.25418570507129
  N   3.98550660801355      3.11937721369703     -0.56394136599412
  C   0.19019899841964      3.78643578280997     -0.54620125284082
  H   0.29124090484550      4.73080825432236     -0.01454951239814
  C   -0.85442667476182      3.61269003369909     -1.47422591737415
  H   -1.54992637831644      4.42923533272155     -1.64780323178170
  C   -0.96004136611055      2.41169323162618     -2.15420017875286
  H   -1.73999896355796      2.25504388282811     -2.89699849824736
  C   -0.05275717691355      1.36066933927412     -1.85671434438549
  C   -0.12670068835895      0.07930514493236     -2.47126703995790
  H   -0.88535187650185     -0.09351193051439     -3.23206634887714
  C   0.72791561249479     -0.94031783437059     -2.08826408415577
  H   0.65326807283207     -1.92224410222064     -2.54890418715370
  C   1.67475684433666     -0.72592652866180     -1.05758180459872
  H   2.29205401741732     -1.55303318627077     -0.71173549115246
  C   1.80063723710497      0.53052286130607     -0.47857261066782
  C   0.95513130090271      1.59963139916282     -0.86763362504338
  C   3.25809220101478      5.39714690947043     -1.08275364999926
  H   2.31413590364409      5.31713459228152     -1.64043559613844
  H   3.72936479664012      6.34736728366791     -1.35658978449364
  C   4.14902635799207      4.21878070210653     -1.35746628207196
  C   5.06896021479253      4.23055178342204     -2.40773717595892
  H   5.18111494832224      5.12689289998591     -3.01293121450489
  C   5.81853862117305      3.08116486587189     -2.67778547663159
  H   6.53098861353266      3.06621294989387     -3.49919837038092
  C   5.63706614612186      1.95156304273046     -1.87398699928963
  H   6.20459374233955      1.04123753733660     -2.05147431586671
  C   4.72820688722998      2.00122749543325     -0.81485432829301
  C   4.56254401045234      0.84388182352543      0.12983558838552
  H   5.25495402104689      0.92375553979310      0.97986709535012
  H   4.74392606198036     -0.11918448005571     -0.35978981216081
  C   4.51294307298403      2.53242289133714      3.20454589646281
  H   3.96499737469882      1.59215766504901      3.19029165802785
  C   5.57310942140329      2.71233223090809      4.11344028344402
  H   5.83173015410141      1.90436987453266      4.79235572705322
  C   6.26790173259294      3.90961228280435      4.11088086333978
  H   7.10720933108937      4.07202519475261      4.78449255480311
  C   5.86030162045246      4.94972602710119      3.23405522579102
  C   6.48675003343813      6.22714154954955      3.20644374687134
  H   7.34095464303678      6.40490815992722      3.85675422911734
  C   6.00119830780453      7.23710560609142      2.39304082669487
  H   6.47361425661559      8.21624356667359      2.39118639761159
  C   4.85384563494365      7.01694764045523      1.59330835207604
  H   4.43487550540103      7.83739606460396      1.01356471353618
  C   4.25524163110917      5.76367422759552      1.56560677478890
  C   4.74514914054953      4.70437119834659      2.36943099428730
