52
Coordinates from ORCA-job ETIGUK-OH_2_3_tpss_d4_lanl2dz_631gpol_Mn2.opt
  Mn  2.54855905382058      3.15199736843174      1.07114589004414
  S   2.82717167421652      0.82806926903123      0.96575868279342
  S   2.64651115764723      5.46491278653756      0.72437075477778
  O   1.31286523652944      3.19528681909980      2.33997574732672
  N   4.07253444048883      3.46175637733296      2.36669471400319
  N   1.07206016481784      2.85117526950806     -0.26922222167593
  N   3.93859523175752      3.12121168101424     -0.49256359848095
  C   0.14813770881699      3.78601846866655     -0.53709200983253
  H   0.20057376650893      4.69697343462135      0.05518207799103
  C   -0.85999757509891      3.62014907513487     -1.50693230862174
  H   -1.57363949619263      4.42216844421479     -1.67403511098318
  C   -0.91231567376193      2.43931483325363     -2.22795436524672
  H   -1.66430231263061      2.28859296760470     -3.00031005407639
  C   0.00157647390386      1.39500160141109     -1.92776641826608
  C   -0.03903282416821      0.12276210494159     -2.56362311037989
  H   -0.76914398928255     -0.04572608112877     -3.35274818344139
  C   0.80774134291592     -0.89593533325545     -2.16174018214744
  H   0.75677877469516     -1.87260916603781     -2.63639471245137
  C   1.71077119188222     -0.69071326587853     -1.09013595504741
  H   2.31251433434200     -1.52223972509210     -0.72761794249508
  C   1.81019499021485      0.55847552029783     -0.49110820661139
  C   0.97487945239441      1.62877541829354     -0.90224525940327
  C   3.18966960999057      5.38444794172091     -1.03986493603450
  H   2.25658015086838      5.29049104328262     -1.61442794739590
  H   3.65780434409319      6.33488942571272     -1.31832841802330
  C   4.09685952139703      4.21046912296978     -1.29311603441150
  C   5.02805365182481      4.22831123207876     -2.33428222441832
  H   5.13293496471634      5.11803130641477     -2.95017826351991
  C   5.80140397703686      3.08870294666088     -2.57706986656971
  H   6.52649601452486      3.07614403875191     -3.38765631500136
  C   5.62705244553507      1.96496477245883     -1.76356097030666
  H   6.21045071444081      1.06161702606044     -1.92349595138267
  C   4.69585183685929      2.01459809991246     -0.72306469486167
  C   4.51573910049553      0.85266387173416      0.21734286798116
  H   5.20816765463884      0.92295285147650      1.06870237831232
  H   4.69986348563000     -0.10647036288242     -0.27913191692175
  C   4.49858352942117      2.52362875103977      3.23056582591894
  H   3.92343947112699      1.59974225577839      3.25805511925115
  C   5.61112299178320      2.69216029574337      4.07665862487724
  H   5.89379708475982      1.88779425171300      4.75023606185846
  C   6.32144000952928      3.87996308878343      4.02386571549504
  H   7.19706476824691      4.03579107102332      4.65135164651388
  C   5.88461673767396      4.91913423432531      3.16129617804914
  C   6.52652174143561      6.18754427178974      3.09569056796514
  H   7.41276648963999      6.35784146120861      3.70367033593600
  C   6.01611032513614      7.19732765111300      2.29871446883484
  H   6.49901087585268      8.17082337184040      2.26805641821867
  C   4.83202661886054      6.98451530393759      1.55135350323152
  H   4.40078693845126      7.80648701557510      0.98270556440816
  C   4.21358305202590      5.74081579445175      1.55733000668232
  C   4.72427940749163      4.68183794423499      2.35240921817473
  H   1.63574936269570      3.31783205308687      3.25876480936301
