50
Coordinates from ORCA-job ETIGUK_2_6_tpss_d4_lanl2dz_631gpol_Mn2.opt
  Mn  2.86584636985116      3.16466497361629      0.72337294694252
  S   3.19102645177030      0.60605959112261      0.58274039288820
  S   3.01093581304643      5.72398383811918      0.39004532817918
  N   3.90390456810798      3.67200565628131      2.48549104150902
  N   0.99138769249439      2.64387478319820     -0.09186101610519
  N   4.28704670136364      3.15778355794056     -0.91304314005222
  C   0.00370592966434      3.55006562693430     -0.19088120134075
  H   0.14744591358535      4.47705838676696      0.36211726961476
  C   -1.15894569246701      3.34925277783175     -0.95786871909823
  H   -1.92370785006263      4.12028926991373     -0.98685983774828
  C   -1.28988908452616      2.16671827209790     -1.66571032292774
  H   -2.16732004627668      1.98079844959752     -2.28261179958414
  C   -0.27810975589901      1.17319062609412     -1.58217439139980
  C   -0.37314277541830     -0.06451990721485     -2.27604446225472
  H   -1.24198994996999     -0.24733673397092     -2.90519140157928
  C   0.61002675354243     -1.02699333320760     -2.13427092015925
  H   0.52951738753026     -1.97945308257299     -2.65201608451905
  C   1.70914870498404     -0.79355247400749     -1.27462944337902
  H   2.44165961308063     -1.58359263376646     -1.11962320554881
  C   1.85408750191151      0.41942362398816     -0.60877616021495
  C   0.86384810221608      1.43744305973124     -0.75291205173028
  C   3.80678130557519      5.57708864133913     -1.27145950376883
  H   2.95870377544985      5.69269701808334     -1.96363619576758
  H   4.45301137514389      6.44967490031494     -1.41901154435462
  C   4.56022339333348      4.30161935132937     -1.59626419411845
  C   5.47160934843308      4.32619031729477     -2.65701540663944
  H   5.67721457601222      5.26124563089837     -3.17275930602437
  C   6.08564246353788      3.13673481348690     -3.05759856130358
  H   6.78363081559542      3.12829895621363     -3.89171237737546
  C   5.78820243884369      1.95813027661202     -2.36795227378486
  H   6.25200477601325      1.01563476080101     -2.64915453933395
  C   4.90338229639517      2.00355992410334     -1.28586219405942
  C   4.70734625593381      0.74227372209543     -0.46722519174289
  H   5.52551618621871      0.64308768055467      0.26244224687181
  H   4.75222394342065     -0.14188983463883     -1.11278923602987
  C   4.08761085062591      2.77192538451245      3.46665555357921
  H   3.47957588229718      1.87051230367503      3.41025170377761
  C   5.00912973217182      2.94717814426321      4.51570196366598
  H   5.10077222683406      2.18419031850289      5.28358810950311
  C   5.78666096284720      4.09259519439525      4.53038354305390
  H   6.52392623761284      4.25542735564325      5.31458029675087
  C   5.61843653769613      5.07840121587178      3.52173785228810
  C   6.38034209925048      6.27881868338721      3.50018812130722
  H   7.13040969970315      6.43840033032911      4.27224556382413
  C   6.15446993693007      7.23653900275990      2.52812456076330
  H   6.72635729879358      8.16099985562192      2.52054829971004
  C   5.13919832363702      7.03955727231284      1.56222629193542
  H   4.92312962503716      7.83132489141549      0.84724892596764
  C   4.39881467373463      5.86229580334950      1.53070697295137
  C   4.63029061439343      4.84652375697827      2.50651769686166
