50
Coordinates from ORCA-job ETIGUK_2_4_tpss_d4_lanl2dz_631gpol_Mn2.opt
  Mn  2.65815162231690      3.14867311902773      0.96034621468706
  S   2.94214555224715      0.80278767628338      0.86621029195486
  S   2.74406159565271      5.48584325366811      0.61422666086493
  N   4.03910397471020      3.49565784300151      2.39314855134349
  N   1.02582484595852      2.80987910387670     -0.17996506314405
  N   4.07787958776185      3.11553414116927     -0.66733083965348
  C   0.08222850797934      3.74066389551789     -0.41833365096278
  H   0.17431115624620      4.67025049502357      0.13913185578339
  C   -0.97850170395816      3.56093398862709     -1.32511560542364
  H   -1.70424744275380      4.35831521326295     -1.45870694105974
  C   -1.06161213264192      2.37550902723162     -2.03610425824850
  H   -1.85597290545392      2.21395372156719     -2.76249499066586
  C   -0.11265061801656      1.34722852902417     -1.79749767994728
  C   -0.16339854023101      0.08721447958944     -2.45688861555137
  H   -0.93883595244812     -0.08305295697789     -3.20106191836982
  C   0.73654401869075     -0.91438383833108     -2.13809438677950
  H   0.68180781318583     -1.88140886999473     -2.63166120997414
  C   1.70735896555342     -0.70202523562374     -1.12940644657939
  H   2.36308140725634     -1.51911270633667     -0.83393776301337
  C   1.81120194284264      0.53484542637651     -0.50571569302834
  C   0.91558422045495      1.58840369931471     -0.82785130085492
  C   3.35001118426871      5.39746257606461     -1.14045756050031
  H   2.42609990368402      5.32539492291831     -1.73297435223847
  H   3.82577073695727      6.35315568007500     -1.38622031330999
  C   4.25905257480400      4.22284025042544     -1.42308585919278
  C   5.19997523184897      4.25482874852449     -2.45634376895254
  H   5.33672985674346      5.15642801937166     -3.04861042011330
  C   5.94428698311018      3.09892254565746     -2.72340284475787
  H   6.67568013695331      3.09232469504846     -3.52849316457607
  C   5.74000242762265      1.95167144369492     -1.94750704547835
  H   6.30792980797976      1.04317686802152     -2.13340944021164
  C   4.80204485053100      2.00026471399039     -0.91131753557054
  C   4.59748590237405      0.82998845192566      0.02521550262829
  H   5.31828111532764      0.86390323306179      0.85537048861686
  H   4.73228608058741     -0.12954264411567     -0.48637330625564
  C   4.41046937351126      2.57275013224121      3.30052467387667
  H   3.84156747199447      1.64550919787928      3.30102073071886
  C   5.46162955507825      2.75813796473461      4.21723856274809
  H   5.69664646745935      1.96701697145053      4.92385742241072
  C   6.17926857432032      3.94219174835300      4.18653033515569
  H   7.01225211658362      4.10942983320212      4.86682809519184
  C   5.80905633752735      4.96212866207060      3.27113541585759
  C   6.47183593977522      6.22017777069551      3.21420183021884
  H   7.31874350962720      6.39537056455642      3.87456730402128
  C   6.03094268046616      7.21381283852099      2.35763860436304
  H   6.52951120737587      8.17945676593188      2.33147382189893
  C   4.89525926080017      6.99462499397161      1.54101702022587
  H   4.51312726850552      7.80511779198473      0.92300077366009
  C   4.25953789882576      5.75950520717643      1.54103579802382
  C   4.70154963000343      4.71444004726908      2.39464202016345
