56
Coordinates from ORCA-job ETIGUK-CH3OH_2_4_tpss_d4_lanl2dz_631gpol_Mn2.opt
  Mn  2.62730845362223      3.17510759500356      1.03146014647441
  S   3.02396128271716      0.79013576149656      0.82396405555933
  S   2.85286170471405      5.55998735140654      0.55569564926862
  O   1.18948051575151      3.31963724710391      2.66819943125456
  N   4.13932173965176      3.52075025391669      2.32019272444784
  N   1.14824646775694      2.82602878640047     -0.29017068498574
  N   4.12183022298509      3.14936581898843     -0.67954259061176
  C   0.21629675839308      3.75547854838565     -0.56905554455543
  H   0.25076247146945      4.65732371776583      0.03933925475145
  C   -0.75141809011365      3.60932712300182     -1.58009153261687
  H   -1.47395729448037      4.40368758659840     -1.74623173084627
  C   -0.74204153037787      2.46127394437590     -2.35552531869410
  H   -1.45760310130926      2.32763688725478     -3.16479681172229
  C   0.19896743395881      1.43529743021529     -2.07930763351835
  C   0.23481853807413      0.21196754973485     -2.80535894074227
  H   -0.46245095751303      0.07106191086241     -3.62888167031390
  C   1.11987221116500     -0.79123031877062     -2.45304505011344
  H   1.13149016624101     -1.73149915872159     -2.99870135810847
  C   1.98669996560540     -0.61842248447553     -1.34621050564444
  H   2.62912693701599     -1.43958904068447     -1.03361458182387
  C   2.00726720745207      0.58131384676230     -0.64624502098377
  C   1.12649157380672      1.63805087823628     -1.00328327599722
  C   3.34402781984344      5.40240627806099     -1.22177862763824
  H   2.38970796120234      5.31472519415812     -1.76159753282519
  H   3.81436906056924      6.33999443421253     -1.53779021501866
  C   4.23694788073350      4.21298203050467     -1.50099210726586
  C   5.11248875247036      4.20926854379239     -2.59307673319629
  H   5.19026592525693      5.08138936462238     -3.23826917255595
  C   5.86751644022406      3.05865812082375     -2.84477782846813
  H   6.54929962231484      3.02284359271262     -3.69158418247224
  C   5.73664395577360      1.95352981526777     -1.99541423908811
  H   6.31498916204389      1.04781694517204     -2.16274883815573
  C   4.85720560633048      2.04069408645827     -0.91157418327883
  C   4.71856102580109      0.90950344490479      0.08203784842805
  H   5.37919871040757      1.06041288004358      0.94822663497494
  H   4.97366660257440     -0.05667422026169     -0.36617384280474
  C   4.49935596348225      2.61222798012745      3.24420585103055
  H   3.85182111826702      1.74192907822784      3.32960382657118
  C   5.63710401243401      2.74325879484077      4.06229802958420
  H   5.86399001441156      1.96732336547124      4.78831843258579
  C   6.45432923480792      3.85028347238816      3.90228644350838
  H   7.35968302979561      3.96708777825063      4.49513487854642
  C   6.09573038195468      4.85831841341057      2.96898114026318
  C   6.86131045298852      6.04407598782938      2.78780110176425
  H   7.77988912863962      6.16607451825591      3.35832182989309
  C   6.43090962449697      7.03622854389510      1.92484404098232
  H   7.00987741296477      7.94834137935096      1.80248018961292
  C   5.20520850915649      6.89127072399546      1.23029453481971
  H   4.83940950580618      7.70826323992997      0.61098443923281
  C   4.45970077166332      5.72506079879021      1.34886991601938
  C   4.89401750194814      4.67711439771163      2.20553846648216
  C   1.15544277882528      4.29692446575649      3.75392346272662
  H   0.39633719936880      5.06022682429487      3.55233448033891
  H   0.95364218927229      3.78988974148341      4.70311127018444
  H   2.14875067936136      4.74944200400627      3.77419906458619
  H   0.31756928822295      2.88167674665377      2.59802261015438
