45
Coordinates from ORCA-job ASEREW_2_3_tpss_d4_lanl2dz_631gpol_Fe2.opt
  Fe  1.64022621827169      9.62871903875170      4.55730009189184
  N   0.58679267006114     10.61181880548477      3.22600094996696
  N   0.32309086423394     12.56548778697525      2.15795506319522
  N   2.63416894175285     11.27410295091906      4.61487846122534
  N   3.12305240671739      8.95965851211479      5.58421012378655
  N   1.19573875468561      7.72296830732436      4.43829203482255
  N   1.79287777709206      5.64667382250707      5.03635589649455
  N   0.38041890704396     10.05565485294059      6.19673435531084
  C   -0.46857384893745     10.49559794087563      2.36610767019019
  H   -1.04275291568370      9.58508942862932      2.26756164482563
  C   -0.64184609907778     11.70057788893969      1.69929923218145
  H   -1.36355355480316     12.00083356489403      0.95117362625373
  C   0.52872202324103     13.95874794233317      1.71692777036644
  H   -0.23991887503180     14.20055236506206      0.98047030766490
  H   1.51718981375781     14.05613664826873      1.25692282401223
  H   0.43590268828264     14.63266811582798      2.57441019506550
  C   1.06451585948650     11.88649112783057      3.08521894378190
  C   2.20486419893692     12.26191680224059      3.85049921916593
  H   2.68059430052633     13.23978262884713      3.79730699544510
  C   3.73947820404521     11.24764793671040      5.48428266211315
  C   4.54733968748348     12.34172442016914      5.83023251079147
  H   4.34559335108263     13.33271135121587      5.43030426270060
  C   5.61616969210880     12.14506167684515      6.70790389139530
  H   6.24503752382536     12.98795370087820      6.98385364668968
  C   5.88456941593694     10.86921172159972      7.24293514029030
  H   6.71842243918305     10.73687743899926      7.92797411376843
  C   5.08802890703372      9.77192736014244      6.90722052312069
  H   5.29963534279420      8.79373452445564      7.33276199200457
  C   4.01205427566286      9.95567571740834      6.02552651285064
  C   3.18238465778263      7.65368486892852      5.77187137578123
  H   3.97376359691842      7.15467842383352      6.32860832851529
  C   2.10545552391298      6.97444097672835      5.13429946735989
  C   2.53784871565939      4.52116298266516      5.63311409719581
  H   2.01836623517080      3.59530140730516      5.37912551887723
  H   2.56664658977433      4.63566088299372      6.72114605211044
  H   3.55222508597109      4.49403231091108      5.22259393684728
  C   0.66317284725041      5.55304453727006      4.25862874334849
  H   0.21014548745167      4.59771745867598      4.02916785448935
  C   0.30348531462415      6.84303199986163      3.89401207103145
  H   -0.53267358912514      7.16177250862208      3.28765892931710
  C   -0.31740232945043     10.28266503704821      7.10507516336473
  C   -1.20036037659843     10.55595115941564      8.23543469525794
  H   -0.85583349809079     10.00601179549174      9.11994341198126
  H   -1.20285615154672     11.63025281609196      8.45725703988861
  H   -2.22130707941665     10.23778645496586      7.98964265326192
