46
Coordinates from ORCA-job ASEREW-oxo_2_1_tpss_d4_lanl2dz_631gpol_Fe2.opt
  Fe  1.84351822582562      9.55760507083310      4.27951306841622
  N   0.60151359282163     10.61797714220501      3.15345075247532
  N   0.23645868600646     12.63476113323583      2.26830945655743
  N   2.66358434700222     11.27553856364808      4.58246682974208
  N   3.15763442394022      8.94413934373599      5.55048637723065
  N   1.22501006407011      7.67534733400276      4.37689640572964
  N   1.71862383620126      5.64631809052364      5.16577723547994
  N   0.58692216492822      9.95369850290859      5.87099760326873
  O   2.80119708783041      9.22034422552446      2.99333788589354
  C   -0.45203454243518     10.51844700247766      2.30070990043557
  H   -0.97321231144141      9.58923835420343      2.11824046188182
  C   -0.69132281355984     11.77043051340866      1.74239536899995
  H   -1.43135942502238     12.09763694624253      1.02409193700846
  C   0.38110272734960     14.06651200520263      1.93694357743000
  H   -0.42217354790113     14.33994877862922      1.25017736551609
  H   1.34793132245379     14.23403823187159      1.45204226900021
  H   0.29814341373658     14.66478731497294      2.84966366166865
  C   1.01967243305210     11.91145715038049      3.12620086952356
  C   2.14738672553446     12.28445878543811      3.92115535636157
  H   2.54230439412312     13.29838593088432      3.96677340865999
  C   3.76484723680595     11.23609676911298      5.44805385580445
  C   4.56996185417496     12.33099930441333      5.80135249968112
  H   4.37507182558506     13.32048397765801      5.39470385005175
  C   5.63762832339318     12.13321439952005      6.67867736395592
  H   6.27010135132055     12.97448032144181      6.95112343503464
  C   5.90741098321794     10.85562514862613      7.20967027370907
  H   6.74602458848796     10.72012179666308      7.88813899399763
  C   5.11308564336709      9.75919049646615      6.86965289981474
  H   5.33383660969407      8.77734654950102      7.28156377289332
  C   4.03850919059611      9.94322303197489      5.98498323296303
  C   3.12826455652983      7.66394710626817      5.83676772298943
  H   3.84269222811015      7.17990786650533      6.50106931877969
  C   2.06819398566710      6.96925292153791      5.17601460178224
  C   2.41255356544813      4.54423063292223      5.86130176689686
  H   1.77674541854231      3.65784306457115      5.81650730036675
  H   2.57512749602017      4.81848733022011      6.90762339854629
  H   3.36657848767345      4.33929612521436      5.36472675614825
  C   0.63411834158683      5.52149158460887      4.33317565799767
  H   0.16713002434824      4.56356111544160      4.14659936984177
  C   0.33789991524073      6.79160723493636      3.84858152839970
  H   -0.44366289569628      7.08524862770640      3.16204125324560
  C   -0.13827564518242     10.16421266351513      6.75789215943769
  C   -1.05149873085799     10.42632496737683      7.86544888692829
  H   -0.68293866600661      9.93656126712691      8.77538620747966
  H   -1.12075885430994     11.50688570478074      8.04265160374262
  H   -2.04824763827260     10.03608957156049      7.62436249823193
