45
Coordinates from ORCA-job ASEREW_2_1_tpss_d4_lanl2dz_631gpol_Fe2.opt
  Fe  1.65331299718928      9.62150434319532      4.53801931821166
  N   0.56837241787736     10.60130816888678      3.23219465936935
  N   0.29636212139267     12.55927617229945      2.17799433569357
  N   2.60628670443986     11.27466000921901      4.63938750798171
  N   3.09687062205508      8.96417444649198      5.60436587368360
  N   1.17799046567952      7.72503599591767      4.43543533499923
  N   1.77372586468544      5.65129768992379      5.03780235375616
  N   0.54324335717127     10.02270534002364      6.04420983392268
  C   -0.50097241047933     10.49295589223491      2.38707709850377
  H   -1.07752832367520      9.58343759851905      2.29184004129506
  C   -0.67884364859112     11.70017046678201      1.72682794721185
  H   -1.40603358591902     12.00617840444379      0.98649755086160
  C   0.50325086768653     13.95210410518669      1.73683471980198
  H   -0.27233498011814     14.19819003714586      1.00915838533360
  H   1.48706197649314     14.04598269109319      1.26625484610904
  H   0.42266255444353     14.62559805582980      2.59573167285334
  C   1.04460323982079     11.87500625263604      3.09476790440719
  C   2.18299653180147     12.25724370340251      3.86781310323525
  H   2.65878515082779     13.23474553211520      3.81074504136052
  C   3.70088829321080     11.25418588670156      5.52120135802902
  C   4.50041470713061     12.35128314874980      5.87751106139950
  H   4.29727632658628     13.34232242009755      5.47824172408634
  C   5.56209069163607     12.15692966243749      6.76405520509955
  H   6.18490287884384     13.00172487067909      7.04790470469202
  C   5.83167620110745     10.88066556595371      7.29822891696030
  H   6.66015473372866     10.75064878640340      7.99024548569242
  C   5.04353913790204      9.78056445690146      6.95276346323110
  H   5.25545769710834      8.80203736083170      7.37754774915783
  C   3.97477301696799      9.96171873537538      6.06152135156789
  C   3.16405765991165      7.65819153901110      5.77813090956293
  H   3.95771459038290      7.15666703176987      6.32918331950556
  C   2.08870195293962      6.97839046787340      5.12892769051790
  C   2.52378045498038      4.52594875631436      5.62835033585453
  H   2.00121855639193      3.60019322238592      5.38030336414649
  H   2.56356634380505      4.64116831359113      6.71599498166188
  H   3.53409432848120      4.49758541462715      5.20797140476221
  C   0.63447633704488      5.55563210454465      4.27253949689498
  H   0.17946151145068      4.59968536934585      4.04988379639807
  C   0.27492835296319      6.84492978011348      3.90717213902446
  H   -0.56556547909920      7.16451252901226      3.30712594559675
  C   -0.13944193928177     10.25905616194233      6.96135853475188
  C   -1.00321122899607     10.54724661891116      8.10207751878008
  H   -0.68101704517274      9.96144412181837      8.97206049431568
  H   -0.95313504847624     11.61508515986325      8.34895270884950
  H   -2.03971495432860     10.28380760939714      7.85598881086959
