51
Coordinates from ORCA-job ASEREW-CH3OH_2_5_tpss_d4_lanl2dz_631gpol_Fe2.opt
  Fe  1.48605286049354      9.54977450827737      4.24952927951803
  N   0.41333974309443     10.98170405142435      3.05856589954098
  N   0.15476770971258     13.14874533348726      2.55014518894198
  N   2.52689467003412     11.40367464244738      4.68035431907706
  N   3.08146084630620      9.04283356018635      5.61052005957972
  N   1.22609952180564      7.45505100378644      4.49009870920477
  N   1.91430389456352      5.60385766129467      5.54612395386597
  N   0.11625994498899      9.89071851137745      5.89299180437261
  O   2.57565663661397      9.16614656353404      2.45235282695390
  C   -0.64615682678133     11.10944492330548      2.20533949811728
  H   -1.22382688485218     10.25786096988183      1.87061091677764
  C   -0.81851236548129     12.44847161098822      1.88087648169350
  H   -1.53745388135224     12.94328505663052      1.24132365955960
  C   0.36665228287901     14.60719125854463      2.49713609380756
  H   -0.42678690063710     15.04569865518626      1.88885934903986
  H   1.33720803902973     14.82569228118168      2.04002281652839
  H   0.31861132116657     15.02452275137114      3.50783082930766
  C   0.89401441509141     12.23569872355543      3.26104990952328
  C   2.01880388501204     12.47076359699340      4.11630339191677
  H   2.40430175396385     13.48115628191259      4.26935428782688
  C   3.62462526260296     11.35999685145934      5.54283382943486
  C   4.41612744526448     12.46179698371914      5.91948970015762
  H   4.20075178256623     13.45564174557996      5.53333856111696
  C   5.49041780310505     12.27904792049341      6.78904106481552
  H   6.10237884275238     13.13078281921887      7.07606621695840
  C   5.79114183216043     10.99803695593065      7.29424362236079
  H   6.63402683058275     10.86734802999634      7.96868931722387
  C   5.01862478051631      9.89508160282367      6.93210373375703
  H   5.26829509645382      8.91223831132131      7.32551104852132
  C   3.92972281771820     10.05989144510741      6.05561256031768
  C   3.11192168457523      7.78693270022070      5.98489507115206
  H   3.82460030032591      7.38264574377911      6.70654349333765
  C   2.12313001992443      6.94996193995131      5.37664464789550
  C   2.68061144287460      4.69641633273835      6.41972013353881
  H   2.26090522632808      3.69328916347927      6.32270446208380
  H   2.59626222196774      5.02514556346347      7.46050272183194
  H   3.73015605209587      4.68097669282954      6.10886094399149
  C   0.85593439058754      5.25359353164275      4.74339268319296
  H   0.49167383480687      4.23590992737242      4.69472764942134
  C   0.44093008514895      6.40907756297437      4.09622205018066
  H   -0.36506104058228      6.52771625074098      3.38426930893958
  C   -0.62294298428711     10.06953248703415      6.77827488089742
  C   -1.55076899706612     10.29442481098947      7.88309607177154
  H   -1.44394641155054      9.49864405577956      8.63043468096375
  H   -1.33896173841393     11.26174309419032      8.35532480974567
  H   -2.58112775701544     10.29741270027107      7.50613566633817
  C   3.75844666498542      8.33429862155967      2.28174761108490
  H   4.65972041728769      8.88499329216016      2.57466765897340
  H   3.61067666523301      7.47414982868942      2.93664541112839
  H   3.82805967283149      8.00091021578752      1.24138359962970
  H   2.59037709056842      9.89487087332934      1.80098751408340
