45
Coordinates from ORCA-job ASEREW_2_5_tpss_d4_lanl2dz_631gpol_Fe2.opt
  Fe  1.27790086142328      9.54810935445388      4.55310664396614
  N   0.37268793646860     10.79336566060951      3.13748274623603
  N   0.41561323131520     12.78238767083721      2.11216631950584
  N   2.55351767117783     11.26320346146049      4.61803481435461
  N   3.04714045215961      8.93198557139518      5.58236960052848
  N   1.07230609420541      7.46392500342549      4.52189215687596
  N   1.96395496685181      5.50000953660851      5.12040798169296
  N   0.07393158661615      9.99177035453190      6.18916143155666
  C   -0.67321387506703     10.85470267708653      2.25879226422533
  H   -1.36991534303277     10.03716406159278      2.12933448712761
  C   -0.65776559993990     12.08378785364243      1.61549522192981
  H   -1.31066493851365     12.50321876554634      0.86165836294520
  C   0.83121637581433     14.13948465654442      1.70738535446534
  H   0.10910840392598     14.51388331772238      0.97937786650135
  H   1.82354380286139     14.09926677293036      1.24704510140061
  H   0.83953251711439     14.79822255722311      2.58118421267815
  C   1.03071800347480     11.98058428192015      3.03632620027936
  C   2.20680196574034     12.23664218210285      3.81284652009559
  H   2.77307678726655     13.16352339948944      3.70261062770731
  C   3.66637650020146     11.21892875347084      5.46107966827954
  C   4.48886516844702     12.30688656415425      5.80234866135060
  H   4.28005958911802     13.30159278221243      5.41458358286639
  C   5.56960311619530     12.10688869650361      6.66218970176202
  H   6.20431971292435     12.94730826977132      6.93250302971901
  C   5.83994730374665     10.82835602146154      7.19099964565439
  H   6.68130880995631     10.69106395436908      7.86590889982736
  C   5.03214661096336      9.73828523012774      6.86428859214407
  H   5.24043077042411      8.76036321933725      7.29282109438046
  C   3.94106504313315      9.92213950833098      5.99719176075220
  C   3.18313853851236      7.63548460023604      5.71254933313470
  H   4.04931170864725      7.16085159224715      6.17762076207216
  C   2.11589051053571      6.86075933208584      5.15373821609032
  C   2.88712124396844      4.49600711353129      5.68452900656413
  H   2.46239689386195      3.50604852847025      5.50806716900680
  H   2.99442638896263      4.65774120392393      6.76149874356251
  H   3.85911708581770      4.56794906432744      5.18629589638896
  C   0.79492078101768      5.23644513072004      4.44967836324697
  H   0.44721252300349      4.22500408306467      4.28643760857928
  C   0.25297215030516      6.46065574031373      4.08476206413479
  H   -0.66293353010355      6.65475412004101      3.54257727641256
  C   -0.60333388223473     10.23516781776108      7.10888351381751
  C   -1.45444077321392     10.53386375298106      8.25509967580725
  H   -1.07973551742238     10.01056341521871      9.14363294995162
  H   -1.45956400051903     11.61441007076278      8.44513083279685
  H   -2.47921364611089     10.20044429545232      8.04710603762489
