60
Coordinates from ORCA-job ETUCIG-CH3OH_1_6_tpss_d4_lanl2dz_631gpol_Mn2.opt
  Mn  7.76055095672936      3.90266150466065      2.66010507111219
  Cl  7.88134272876305      5.92662998380028      3.97346102452654
  N   7.14229331090591      2.33921205321991      1.15820225556206
  N   5.53221304378055      3.69877792261029      2.79926098507289
  C   4.78201588923609      4.50624637869228      3.57535320635689
  H   5.34939131870504      5.18551998237781      4.21150098194692
  C   4.92450802158275      2.82848665370899      1.95150510225419
  C   3.52486039356589      2.76644848505632      1.87125558246792
  H   3.03695246525178      2.09009361193183      1.17437078042991
  C   3.37838567505014      4.50111168617174      3.56755794857745
  C   2.75605452050132      3.60275383040884      2.68292275464985
  H   1.66928123810408      3.56265790698208      2.62163408825858
  C   5.83092847136557      1.98963541377800      1.13257958517805
  C   5.39626380486068      0.89258885056201      0.37101793422266
  H   4.35027375590256      0.59801412328481      0.36839171801213
  C   8.02863191447932      1.62695512729506      0.43920330325103
  H   9.06217674853972      1.96295338168947      0.51151835108286
  C   7.68425789403108      0.52666899347164     -0.35875224247456
  C   6.32472318259330      0.16634155776259     -0.37468603360397
  H   5.99391164779727     -0.68603427961112     -0.96653177974764
  C   2.59264556386840      5.42643543069364      4.46382341628632
  H   3.25860539266726      6.06908952926112      5.05017662193093
  H   1.96341505194065      4.85575242958984      5.16096329866197
  H   1.92548653192060      6.06980364606441      3.87398962911412
  C   8.72579312514922     -0.22529537475339     -1.15053565627762
  H   9.72261990289299      0.20843654120197     -1.00918539319834
  H   8.49342885326538     -0.20469110608911     -2.22405345324769
  H   8.76506358157183     -1.27991602120753     -0.84504421009773
  O   7.78521303542099      5.46067437071059      0.97140938709535
  N   8.34247125894148      2.32821095689078      4.11419709619902
  N   9.95327725587977      3.61165209577005      2.39732925441365
  C   10.69955970053153      4.38588451121472      1.58575839550170
  H   10.13556713119629      4.97592038968873      0.86489112778097
  C   10.56361761748306      2.85618482046748      3.34695764104445
  C   11.96029385867845      2.87174469312273      3.48408816499539
  H   12.44955452030831      2.28605169147356      4.25744892335560
  C   12.09793530779749      4.46036853754400      1.65156352161412
  C   12.72318168465469      3.67250006683801      2.63402886923766
  H   13.80661798369140      3.69521053604920      2.74256000654564
  C   9.66877765869140      2.06097188526636      4.21942716487613
  C   10.12948001799375      1.08569020053795      5.11886518270587
  H   11.18826986603351      0.85288920404597      5.19086610850598
  C   7.46807371283079      1.66375831129559      4.89036987911599
  H   6.42249126176053      1.93911307718940      4.75814443990734
  C   7.83938214190165      0.68743101345531      5.82474410004073
  C   9.21357141298633      0.40366353742744      5.91910232656819
  H   9.56661267616313     -0.35166482534627      6.61983603620728
  C   12.87822930922051      5.35974516937026      0.72494009175541
  H   12.22441649895281      5.82433416064062     -0.02209435427449
  H   13.66246366509661      4.80025468095814      0.19737301835745
  H   13.37163762512819      6.16268748121449      1.29007118814730
  C   6.81204744713595     -0.01098769305034      6.68117423388326
  H   5.79583970537068      0.31265652037197      6.42708313687161
  H   6.98070069417094      0.20402660187444      7.74536543553354
  H   6.86755061964079     -1.10073111806073      6.55437002147346
  C   6.66301516915644      5.64873848341285      0.07686804152745
  H   6.83205055254229      6.52625366812033     -0.55858139997536
  H   5.72729516916563      5.76535130765430      0.63909197377912
  H   6.61166009429324      4.74943958112919     -0.54202571045223
  H   7.81221036215857      6.20824784010801      1.62121182735416
