56
Coordinates from ORCA-job ETUCIG-OH_1_1_tpss_d4_lanl2dz_631gpol_Mn2.opt
  Mn  7.72363367579664      3.94591091367470      2.47639072391154
  Cl  8.04063703017697      5.54115861875982      4.13159677829854
  N   7.29205315949294      2.52496732925718      1.15330353442676
  N   5.72284516699965      3.84980290221900      2.74801678456410
  C   5.00580756706530      4.61940241176042      3.59164957665251
  H   5.59604543095276      5.29518636978818      4.20776303951233
  C   5.08411781963514      2.96883356085190      1.92556254254654
  C   3.68928453765376      2.84452086082643      1.95996171544355
  H   3.18171478962871      2.13991847819019      1.30707580077682
  C   3.60651352289943      4.56138486564157      3.67557183510541
  C   2.95310190629100      3.64233476279886      2.83642697353256
  H   1.86819240539050      3.55327448125927      2.86543696448032
  C   5.97140698181757      2.21245482143066      1.03482586437933
  C   5.54734615981025      1.24825733274898      0.10997349198502
  H   4.49407768217222      0.99761307536672      0.02050155596958
  C   8.19352235974195      1.91302823316819      0.36025027331899
  H   9.22598144860907      2.21934387203690      0.50019122708300
  C   7.85015066325283      0.95004796267900     -0.59641089692758
  C   6.48715550200671      0.61858741846592     -0.70400059747669
  H   6.16335461761772     -0.12788815138109     -1.42740658126141
  C   2.85370429093871      5.46775700102668      4.61779158842659
  H   3.52695593665733      5.92903034888203      5.34866390246970
  H   2.07377022820891      4.91667166978926      5.15892890086143
  H   2.35824764576365      6.27480799093260      4.05904726298335
  C   8.90332320926459      0.30892280785102     -1.46610373816488
  H   9.90708242234115      0.66393936097562     -1.20569651553480
  H   8.72438124835110      0.53934941815400     -2.52527725200196
  H   8.88667140787230     -0.78422132727250     -1.36111184953352
  O   7.57119035702948      5.18130657071973      1.18629443421578
  N   8.12503551949839      2.50331078685524      3.87705544021791
  N   9.68600014265554      3.82804055879442      2.31572525899252
  C   10.39849587359259      4.59257875108383      1.45790799181592
  H   9.79476364365340      5.22496061259460      0.81166578123305
  C   10.33761403357613      3.00401247396013      3.18572417023940
  C   11.73761304001512      2.93359739033991      3.18828468955724
  H   12.25080321536068      2.27594727042253      3.88445622824107
  C   11.79650298521980      4.58024552631228      1.40752721373740
  C   12.46620723222116      3.72134184702082      2.30029948224680
  H   13.55397309879044      3.67718525744464      2.30318926360452
  C   9.44988644730734      2.25035770740751      4.06994798552857
  C   9.87065908446635      1.34326837900321      5.05323143509129
  H   10.92904952379004      1.14897222431738      5.20288298647560
  C   7.21440952442331      1.87441048905504      4.64734563485802
  H   6.17602572707619      2.12864316870800      4.45567022996211
  C   7.55120759658362      0.96173056479005      5.65259054921518
  C   8.92121000481687      0.70098951685026      5.84364093419184
  H   9.24054896113712      0.00047376591046      6.61349042859398
  C   12.54030716391576      5.46724851533062      0.43946366501883
  H   11.84813172067870      6.03432934905768     -0.19281889529000
  H   13.19768650102103      4.87472809157923     -0.21157478394028
  H   13.17400997382332      6.18335820329954      0.98051311801804
  C   6.48430755219964      0.30615559240300      6.49453811552097
  H   5.48023868332068      0.57663356595706      6.14720674554506
  H   6.57478136796366      0.61561623591707      7.54501178691320
  H   6.57562653757595     -0.78789157615818      6.46588166958030
  H   7.54982567187703      6.06053177114177      1.62939553478799
