55
Coordinates from ORCA-job ETUCIG-oxo_1_2_tpss_d4_lanl2dz_631gpol_Mn2.opt
  Mn  7.71413441943304      4.06369486031924      2.43918083115138
  Cl  8.07856478921146      5.36068513952522      4.28576020099461
  N   7.27063683424762      2.52607743295921      1.23757781165871
  N   5.73336481794396      3.98854775947714      2.73234552093753
  C   5.02832821224602      4.84523425436544      3.49722443742324
  H   5.62449727064253      5.57766372299749      4.03575767815411
  C   5.07978198712977      3.03321259444973      2.00943074608325
  C   3.68605819250525      2.91448600504080      2.07631308088292
  H   3.16984842171169      2.14923243891246      1.50310805209204
  C   3.63003178120164      4.80002456042997      3.60430383687385
  C   2.96275843145818      3.79951165369643      2.87615121857100
  H   1.87817109767612      3.71804429026062      2.92789715790748
  C   5.95327088251901      2.19403070919161      1.18274710949832
  C   5.52640226482236      1.13293750448493      0.37103316957961
  H   4.47515505307745      0.86204692388479      0.32897232481217
  C   8.16949181478639      1.85156134862996      0.49785882125837
  H   9.19815173197798      2.18968080543318      0.58442143175185
  C   7.82197249323386      0.78823118899663     -0.34428261960793
  C   6.46108266551941      0.43244067967407     -0.38869359377047
  H   6.13439844701765     -0.38932271071177     -1.02382326028557
  C   2.89238942215416      5.79856012657128      4.46134873392766
  H   3.58843691746119      6.42462062956992      5.03000818727126
  H   2.22362643154046      5.29024406714859      5.16872978943761
  H   2.27160938494802      6.45744092729678      3.83807286880902
  C   8.86692424223095      0.07427579610215     -1.16560964656057
  H   9.87116222613265      0.46085463235547     -0.95736149010460
  H   8.66963256737199      0.19976076919821     -2.23912138674909
  H   8.86200597202353     -1.00369252160269     -0.95514004162364
  O   7.63500256007068      5.09899974039014      1.21137418976341
  N   8.13872406481994      2.44986720514923      3.77393200277885
  N   9.69946155802086      3.92911965132633      2.29930775766302
  C   10.41360879809578      4.78243409245691      1.53660717114634
  H   9.81298480233725      5.48070541763961      0.95873203922055
  C   10.34363042765487      3.02355598020125      3.08819417387849
  C   11.74396770700497      2.95885005364149      3.09495510063513
  H   12.25649343498109      2.23695189609293      3.72463029801210
  C   11.81335604356854      4.78460579506514      1.49822522135942
  C   12.47716764167261      3.83798209867246      2.30002203399507
  H   13.56514369137192      3.79714330576333      2.30945461746471
  C   9.46286682644591      2.18043581034090      3.90589287825729
  C   9.90300607770743      1.18047232365805      4.78679165964637
  H   10.96250831390559      0.96459831939252      4.89256096657091
  C   7.24246915267183      1.76105850298537      4.50134725432146
  H   6.20149216013374      2.04155499625561      4.35952062782740
  C   7.59483956069382      0.75465137207973      5.40903309178066
  C   8.96711116072414      0.46982789830460      5.53512223540798
  H   9.30118759308745     -0.30365515667579      6.22491334207925
  C   12.56030224518739      5.77726633191808      0.64196468248585
  H   11.87292126123585      6.36772902581061      0.02623570816193
  H   13.27231832430541      5.26818454992771     -0.02144409570101
  H   13.13542014798734      6.47133882857628      1.27062733633717
  C   6.54571338173313      0.02878397686872      6.21457622537286
  H   5.53506782284154      0.34156647832278      5.92688739442004
  H   6.67062787882207      0.23135327287160      7.28729396297527
  H   6.62291859069400     -1.05796735569265      6.07513115376516
