57
Coordinates from ORCA-job EBOROC-oxo_2_5_tpss_d4_lanl2dz_631gpol_Fe2.opt
  Fe  7.06484024617524      8.75343939884690      3.20538565864228
  N   8.19031863460079     10.44628191636023      2.78292063492882
  N   8.29041182736108      8.72344217359448      4.80206437671341
  N   5.71595355392359     10.18027427705536      3.93445665397888
  N   6.28941466898443      9.12916069452688      1.37216774035669
  N   8.60484210148034      7.51987499524481      2.12703225901385
  O   6.12628592780832      7.46995670362779      3.60432907568988
  C   9.55607610726241     10.19340981034550      3.36112459421006
  H   10.12631993629999     11.12886649694532      3.43177484718425
  H   10.08515794680807      9.51869015645875      2.67677975039410
  C   9.39328584552205      9.51915551518393      4.70532129410194
  C   10.31461526941479      9.63799921950912      5.75790056568791
  C   10.04308345739717      8.89683510725395      6.92505087327880
  H   10.73038058036455      8.96295985314547      7.76672300890114
  C   8.91000415643054      8.08093680744622      7.01361153938206
  H   8.70018612301327      7.50477979556387      7.91088505668203
  C   8.04422187023540      8.01174189894287      5.92426785230643
  H   7.14839507016454      7.39743017607489      5.90881083275169
  C   11.54595813049053     10.50898069549207      5.64473040971618
  H   11.28116436858484     11.55895600327839      5.45463150642301
  H   12.19903971718628     10.17630542783390      4.82626876929063
  H   12.12800079014686     10.47620162568921      6.57118422201160
  C   7.57254037927609     11.65057825656271      3.45562119545052
  H   8.10963088569947     11.80254351575230      4.40274569661456
  H   7.74838487640972     12.54065385929674      2.83870159334939
  C   6.10610472344389     11.46533930248224      3.76875207626311
  C   5.23202452918394     12.54647652639473      3.97722815853913
  C   3.91915669566533     12.22868487509700      4.37278795957273
  H   3.20691452121840     13.03395761527906      4.54450691652510
  C   3.52498219502176     10.89799801099714      4.55322089290703
  H   2.51495267052774     10.64794165031155      4.86710928485183
  C   4.45449422213919      9.88707990999257      4.31728158703942
  H   4.22492358700257      8.82961809484694      4.41892364357424
  C   5.68109399842981     13.98007808121332      3.80808289316761
  H   6.48313435495588     14.23582926027694      4.51490851543618
  H   4.84935438315945     14.66911835152586      3.98639673910558
  H   6.05869186587770     14.16917560199486      2.79270639921122
  C   8.21551007319148     10.58669956254229      1.28584122741893
  H   9.01336061488931      9.93075279199252      0.91291330853090
  H   8.46578492632494     11.61629690061019      1.00134540791210
  C   6.90169505782042     10.13388973610627      0.68997543082348
  C   6.38414081770266     10.63041733181958     -0.51789897401488
  C   5.19647210465221     10.03865187956113     -0.99016882271720
  H   4.75977261724897     10.39631230797554     -1.92100731881838
  C   4.57889261567010      9.00035322795840     -0.28501571718355
  H   3.66651545366981      8.53584208513707     -0.64970477208917
  C   5.15358952382119      8.56523669283319      0.90737940004670
  H   4.73495986131837      7.77146442776242      1.52002740796840
  C   7.07246667279095     11.73280889393789     -1.29122314250111
  H   7.21472322270036     12.63275226069660     -0.67634927742734
  H   6.47898207258866     12.01857422802852     -2.16563511207475
  H   8.06127172198742     11.41399743593731     -1.64955274915953
  C   8.97207540186817      6.47229616871817      1.76155343305081
  C   9.43400730025605      5.16729340245992      1.30305597316800
  H   9.44450468661018      5.13891495419376      0.20632827932105
  H   10.44664430299765      4.97602373768187      1.67958140594495
  H   8.75709073422406      4.38877031360219      1.67775953854695
