62
Coordinates from ORCA-job EBOROC-CH3OH_2_1_tpss_d4_lanl2dz_631gpol_Fe2.opt
  Fe  7.15585553892254      8.90489444433154      3.01220230338994
  N   8.28364820756033     10.44432052391986      2.56335288726700
  N   8.16694397212558      8.94125664032531      4.70557807422841
  N   5.92292022871801     10.17691642300999      3.78286241825483
  N   6.30982105648821      9.27391613958076      1.29368101105444
  N   8.38377011598537      7.67064134823267      2.25006871251390
  O   5.90460304601592      7.32363755632051      3.46546844016986
  C   9.60232524510637     10.20532541791255      3.24146742120996
  H   10.20084930295350     11.12552977245789      3.27187182869891
  H   10.15065842255043      9.46600305883004      2.64536415409485
  C   9.32323022340515      9.66046881493618      4.62202074177223
  C   10.17774086440536      9.86198779959861      5.71876939882857
  C   9.78863859438999      9.29820782299379      6.94695316937585
  H   10.42199645233132      9.42749945359324      7.82244561731587
  C   8.58855818373235      8.58954715666795      7.04634840195614
  H   8.26104501071716      8.16320968175103      7.99088704334767
  C   7.80346764362297      8.43804885682493      5.90518985283360
  H   6.84797245298525      7.92013828332990      5.95403523952021
  C   11.46386957337706     10.64691573268068      5.58645143558520
  H   11.27116626386009     11.69159241671984      5.30191650849782
  H   12.12605371548847     10.21237026320932      4.82514066606799
  H   12.00832632674113     10.65821583815288      6.53606003464614
  C   7.64926343687789     11.72390866435428      3.06625126930568
  H   8.34328019154355     12.21273956692814      3.76292908578630
  H   7.51862176424718     12.41095690617284      2.21952446384249
  C   6.32454453796429     11.47149989150074      3.73796902088437
  C   5.55911021624904     12.52526846433433      4.26915405542009
  C   4.33005893442883     12.19144863911755      4.85938859748445
  H   3.70711344069150     12.97609706515314      5.28455321470199
  C   3.90667428822335     10.85911502362452      4.89207792717531
  H   2.95341081798148     10.58124117514561      5.33404086251212
  C   4.72636612932717      9.87724243885996      4.34256866993411
  H   4.44091924110693      8.83038949278277      4.31910886911474
  C   6.04696291723463     13.95350008397655      4.20131384639424
  H   7.00600327117831     14.07686378829341      4.72536333974522
  H   5.32462777857701     14.63342387404331      4.66406161520451
  H   6.19488997352579     14.28000508261837      3.16148859948685
  C   8.39466444879001     10.44732297462952      1.06241688620909
  H   9.12510995919421      9.67565369792244      0.79042177300438
  H   8.77079270438655     11.41270467744438      0.69912314755599
  C   7.03751462624700     10.10514326818581      0.49526110318056
  C   6.56095338257900     10.58194011983272     -0.73695813072530
  C   5.27069374772237     10.17540289206813     -1.12298260487201
  H   4.86186018767864     10.51948518319760     -2.07113280694768
  C   4.51126825183184      9.34958685776547     -0.28982222865574
  H   3.50543500002249      9.04362935447254     -0.56573149597762
  C   5.06014390498193      8.92160220750503      0.91808941968228
  H   4.50722822348597      8.30302865608851      1.61882580192809
  C   7.39557841597971     11.48753112191753     -1.61501374855500
  H   7.64417464113636     12.42923968509073     -1.10453209560460
  H   6.85397722245651     11.74172990480035     -2.53183317514852
  H   8.34034143193778     11.00796441476328     -1.90548612923536
  C   9.11009567055637      6.87527168488375      1.78810793104665
  C   9.99851097527567      5.86993760461792      1.20973645015498
  H   10.30408018619641      6.17087806933539      0.19944457082673
  H   10.89343103217455      5.75055144115149      1.83363766913363
  H   9.48015559121179      4.90413942884664      1.14688978134192
  C   5.88962190439230      6.08325324270205      2.68300955543860
  H   4.97528655046335      5.53307359142241      2.92670190673774
  H   6.77653805038272      5.48130771015591      2.90237373309273
  H   5.88585685111458      6.38605909953078      1.63552668662876
  H   6.00797965916197      7.06401950938428      4.40301720213764
