62
Coordinates from ORCA-job EBOROC-CH3OH_2_5_tpss_d4_lanl2dz_631gpol_Fe2.opt
  Fe  7.08735922853911      8.69900964967419      3.17998005386640
  N   8.29234912255569     10.51123184767799      2.77983764245287
  N   8.46039921483080      8.77394713805477      4.82858744929452
  N   5.67098490800928     10.24556143797046      3.76233304537464
  N   6.37768132752880      9.26997534520183      1.22576891785688
  N   8.37524343530048      7.25442041251506      2.22201235893933
  O   5.80161810025374      7.12529030803287      3.90083960344799
  C   9.65714639501081     10.23306554564792      3.30057452030871
  H   10.26129587470021     11.15040101712881      3.36473342641491
  H   10.15315295232970      9.55865273955903      2.58882192607153
  C   9.55959305620504      9.55183961425642      4.65319033022868
  C   10.55332751678995      9.68623563737871      5.64118485256087
  C   10.36164554124104      8.97690014941062      6.84068010609015
  H   11.10434451715405      9.05692724334748      7.63263817480748
  C   9.22990771874625      8.17615477177201      7.02178222598482
  H   9.07130192138410      7.62455311693277      7.94477487448340
  C   8.29993872839267      8.09829736480462      5.98708060743995
  H   7.40409218840587      7.48733674759748      6.06354667002128
  C   11.77837851429548     10.54775625906627      5.43126461756162
  H   11.50703297733396     11.60029650826076      5.26554375877591
  H   12.36283936351548     10.21558133503321      4.56230710619844
  H   12.43246613786336     10.50834524901884      6.30839550987322
  C   7.66719843395529     11.62137385062443      3.56012657647972
  H   8.07759616482153     11.57070303378935      4.57893732147621
  H   7.96314264966352     12.59197927751294      3.13864799273458
  C   6.15908487272924     11.50659517860504      3.65398321995204
  C   5.33194041744918     12.64688276278636      3.69252421743079
  C   3.95115902300767     12.43129474656528      3.84257310424944
  H   3.27743417974563     13.28576165043481      3.87680622933138
  C   3.44244459279719     11.13333528604637      3.94247996295850
  H   2.37659585401435     10.95080705868652      4.05219923760034
  C   4.33822208772887     10.06785151245382      3.89084683950199
  H   3.99206419553456      9.03717569800518      3.92906157738159
  C   5.88867728148163     14.04992652725096      3.59045289204707
  H   6.57623204643137     14.27277609560728      4.41796376364202
  H   5.08039437297362     14.78780627360758      3.62173163046762
  H   6.44050365828915     14.20012379688127      2.65130416804784
  C   8.27980402789557     10.77526928205680      1.31602582278122
  H   9.08106407799873     10.17163183239782      0.86709067872428
  H   8.51075128435867     11.82903939754584      1.10532475568979
  C   6.96481615595494     10.36174654802016      0.67857050064038
  C   6.43478107180906     11.01271396144432     -0.45162649420593
  C   5.25603236092886     10.47701006092179     -1.00104527386809
  H   4.81196858656898     10.95174181458813     -1.87451316213456
  C   4.65615961085504      9.34541916226681     -0.44024631661690
  H   3.74856615083492      8.92119627842047     -0.86177435477194
  C   5.24745093841216      8.77068664064104      0.68316973905177
  H   4.82170756630441      7.89982073766023      1.17743758060216
  C   7.09878024923489     12.22564186000495     -1.06480576835738
  H   7.19310477689856     13.04567204969864     -0.33851834339602
  H   6.51322058650744     12.59719670770553     -1.91200688266593
  H   8.10726882847814     11.99188536824720     -1.43317237144754
  C   9.10352279055249      6.51390224201227      1.68601735113198
  C   10.00211118364346      5.57894356723364      1.01430904216600
  H   10.04692179665875      5.81162503015076     -0.05701313767671
  H   11.00964240665585      5.65487726401587      1.44185548507622
  H   9.63586411560634      4.55250041041225      1.14237850675193
  C   5.80600235962909      5.68209847159481      3.65803939481434
  H   4.78534776113665      5.33976777985682      3.45807499621583
  H   6.22880995155732      5.15581498327731      4.52048813453920
  H   6.43456063639259      5.53574092532410      2.77958937682325
  H   5.21355215411660      7.31668543730100      4.65785422877713
