58
Coordinates from ORCA-job EBOROC-OH_2_2_tpss_d4_lanl2dz_631gpol_Fe2.opt
  Fe  6.99692504755820      8.83227836339989      3.00936155014151
  N   8.12836075509185     10.43980676609141      2.55833349155631
  N   8.06906328957026      8.79119100775581      4.64196222691751
  N   5.81733623831760     10.10220061876398      3.88540993676725
  N   6.18901975023755      9.25267974722200      1.25834255651908
  N   8.26839605115511      7.58244528427736      2.21308377430954
  O   6.03874072069752      7.38056377147876      3.45617308314145
  C   9.41631703086575     10.28852763285288      3.31504548929517
  H   9.92161832425879     11.25632250640340      3.42537384791653
  H   10.06764414105142      9.63805859420498      2.71596000158120
  C   9.14371950339586      9.62395910912802      4.64534794538897
  C   9.97071807861460      9.76704291656077      5.77135097265146
  C   9.63664901602236      9.00473479258564      6.90612753476765
  H   10.25011459516058      9.08623527113742      7.80155771103725
  C   8.53668827213365      8.14219349098689      6.88778318408797
  H   8.27983142633326      7.53910179105278      7.75467132932040
  C   7.76198233016805      8.05705033458412      5.73163227630489
  H   6.90028626153614      7.40456930828130      5.62716257802991
  C   11.17636069307216     10.68023625034783      5.75873673082428
  H   10.89552152767946     11.71917280357554      5.53432908489885
  H   11.91228285403622     10.36391644209015      5.00622482150523
  H   11.67413508878201     10.67399803066898      6.73358488905661
  C   7.38111090861811     11.69681676460720      2.93197481279121
  H   8.06389353028180     12.38944365176514      3.44083305090421
  H   7.06011265905496     12.19245725049293      2.00553023504911
  C   6.17751608772203     11.40671274044570      3.78902701676034
  C   5.46735667574814     12.43790702099264      4.43061478593874
  C   4.35712718024231     12.06784318570812      5.20567631972617
  H   3.77973391216677     12.83477035287395      5.71834126837034
  C   4.00556101288658     10.72041312615534      5.32922612776920
  H   3.16145376317440     10.40970891886615      5.93910294717909
  C   4.76124926441851      9.76117451562512      4.66211729797512
  H   4.55605789399740      8.70074430120325      4.75963950358402
  C   5.89057650222048     13.88098427797743      4.28393349128122
  H   6.89976166456941     14.04704877320390      4.68892002794841
  H   5.20417390249879     14.54244194309567      4.82174637522962
  H   5.90077358731774     14.19278246783174      3.22981205947350
  C   8.30812907507820     10.38379921314565      1.06737386448499
  H   9.03943842117488      9.59571140900577      0.84949037254589
  H   8.70613735985552     11.33424026284266      0.68834296763831
  C   6.96913094190740     10.03527241274833      0.45937686688905
  C   6.56184253197283     10.44589482134114     -0.82065803424904
  C   5.29674970599148     10.01195505743530     -1.25724617847068
  H   4.94068604253391     10.30695334346958     -2.24252844550661
  C   4.49992043341862      9.21005195374970     -0.43655401385970
  H   3.52123065588253      8.86653538786755     -0.76096976384395
  C   4.97830665571438      8.84729171490471      0.82116870201785
  H   4.39987302188906      8.22120130529337      1.49272894698908
  C   7.44508980587330     11.30571217706196     -1.69678667561915
  H   7.68253213213029     12.26509563273570     -1.21503477479192
  H   6.94684432622856     11.52627013161733     -2.64616202411480
  H   8.39527271161905     10.80406605576260     -1.92623846535700
  C   8.85492934297049      6.64987888958788      1.83157483917197
  C   9.57237164322533      5.47004684696212      1.36194965184070
  H   9.62086129048803      5.46969090938401      0.26589987309846
  H   10.59044842976968      5.45886267300501      1.77059185766459
  H   9.04041739074960      4.57049259193475      1.69797598504203
  H   5.07506854087067      7.49233308585015      3.30518411243044
