58
Coordinates from ORCA-job EBOROC-OH_2_6_tpss_d4_lanl2dz_631gpol_Fe2.opt
  Fe  6.71218642852687      8.61666563581930      3.01541677611546
  N   8.02033900135561     10.36626780740730      2.50111181019988
  N   7.99294583623147      8.76258248601733      4.70611885591605
  N   5.64913440419050     10.15966687847277      3.95287642879297
  N   6.10218553453786      9.18655857836965      1.06095257413320
  N   8.26281212449364      7.33351812623187      2.08367203531050
  O   5.59677158405923      7.26097691865803      3.43375976537549
  C   9.28773989074455     10.21670332623034      3.27125925428207
  H   9.82747182757428     11.17205025709138      3.32886487639088
  H   9.92426615739140      9.51089277244167      2.72006476965865
  C   9.01696072341247      9.64766760521517      4.64999934343858
  C   9.80664030032727      9.94727655246334      5.77480303464832
  C   9.48009163524498      9.28592510124165      6.97390109757137
  H   10.06381793310495      9.49121770922430      7.86969172484040
  C   8.42254925406957      8.37207551806004      7.02490132365906
  H   8.16783620937030      7.85539079652791      7.94655049753385
  C   7.69180229329366      8.13295373549839      5.86270268074968
  H   6.85233975867112      7.44368819704007      5.82378599356025
  C   10.96379374785090     10.91871756334146      5.70793723715513
  H   10.63915471897571     11.91371951682447      5.37150154933853
  H   11.74118368100984     10.57103350422955      5.01356340489208
  H   11.42606294848321     11.03560528384492      6.69339035775122
  C   7.27847297564737     11.61496172175127      2.87751896571720
  H   7.99046022272384     12.38099388464004      3.21253670497549
  H   6.80086950507176     12.00055768131513      1.96516078005364
  C   6.18859937135445     11.39947227052244      3.90702686950888
  C   5.69539825962388     12.45427951239415      4.69704497742121
  C   4.60648500997198     12.16352249981866      5.53904419775786
  H   4.19630140080828     12.95250233537587      6.16715540192154
  C   4.04636971594784     10.88178773694518      5.57214348726365
  H   3.20002915805975     10.65212391442626      6.21407552400676
  C   4.60040618546458      9.89198555583619      4.76456177240861
  H   4.23808639806082      8.86763051744863      4.74291846955331
  C   6.29180442147922     13.84222008970211      4.63711950824416
  H   7.35939362346830     13.83469274097437      4.90077775582274
  H   5.78167165392431     14.51161470031371      5.33719409630549
  H   6.20071406275029     14.27817291386094      3.63231035265408
  C   8.23702377633895     10.32670219675780      1.02616138498876
  H   8.97541713100083      9.54115963701483      0.81843914635268
  H   8.64896353708430     11.27696792079041      0.65808669858413
  C   6.92854272930997      9.98643688869421      0.33960643344204
  C   6.60075528334640     10.42835854609718     -0.95443769699066
  C   5.36144181962016     10.00829253359852     -1.47346168314342
  H   5.06634376779514     10.33111132246008     -2.47045841965156
  C   4.51042275443905      9.18877008455200     -0.72449911547009
  H   3.55103558377118      8.86362260964645     -1.11826463997369
  C   4.91576274116723      8.79086985804333      0.54792587228349
  H   4.31027419376693      8.15422558211406      1.18732248971624
  C   7.53157992227493     11.30843978432011     -1.75838159011387
  H   7.71725885756645     12.26726740404779     -1.25308106281627
  H   7.10046989105441     11.52981942692298     -2.73998081189011
  H   8.50466327863775     10.82518436963123     -1.92128544758842
  C   8.93627160200700      6.46400957234581      1.69188882340405
  C   9.76828122270419      5.37049114384699      1.20113503692622
  H   9.69671981824193      5.31114383572260      0.10781900323413
  H   10.81393654241337      5.53829361859445      1.48781400004058
  H   9.42412383475810      4.42351269182713      1.63608406926039
  H   5.44101375542467      6.31653902739504      3.24168325447675
