62
Coordinates from ORCA-job EBOROC-CH3OH_2_3_tpss_d4_lanl2dz_631gpol_Fe2.opt
  Fe  7.11550514243357      8.85892339839474      3.02282452844057
  N   8.34831164608232     10.61263942263315      2.53249420738528
  N   8.22633244833732      8.95680342766957      4.68571627888819
  N   5.94204778796869     10.22564721851038      3.79845288644909
  N   6.35860922352647      9.29574131111744      1.23505395957141
  N   8.28940913883674      7.55689860022225      2.22978422342881
  O   5.71733459868183      7.08378969951657      3.52656638744628
  C   9.62144893213760     10.33190236195032      3.23685937826203
  H   10.24676958573799     11.23237600327921      3.32051784678413
  H   10.17981243565281      9.59824624892913      2.63913833027951
  C   9.33736064077913      9.73989480217713      4.60695427181789
  C   10.18735835021061      9.94275708373522      5.71019692608787
  C   9.84346184721464      9.30702500640634      6.91610439417288
  H   10.47545473140356      9.44207461410671      7.79185521321593
  C   8.70045842768594      8.50661064775826      6.99321743520697
  H   8.42016255733557      8.00944435215893      7.91808590427448
  C   7.91519904878728      8.35373399836663      5.85345246696973
  H   7.01836885350891      7.74168783989572      5.85438475604420
  C   11.43057538086020     10.79919419194788      5.60949261322784
  H   11.18631610161226     11.83670983049958      5.34000701122824
  H   12.12676860811547     10.41467552016579      4.85161641988001
  H   11.95952647805568     10.82126130151709      6.56770287184894
  C   7.66126732691399     11.82126036978013      3.05645238217670
  H   8.33229547917101     12.35212322454001      3.74747443705399
  H   7.46789660365536     12.51787981737605      2.22722126961830
  C   6.35054148974802     11.51794897330959      3.75804033919755
  C   5.58941297549185     12.56276604602221      4.31987269519685
  C   4.36638757815658     12.22654289208683      4.91911789791782
  H   3.75286685919130     13.00779804544776      5.36392431326402
  C   3.93315923792115     10.89699738404864      4.93253344915060
  H   2.98146868201184     10.61637608474989      5.37594102338126
  C   4.74670019767008      9.92396601462180      4.36180970183048
  H   4.45299314345143      8.88021880571008      4.31944659721802
  C   6.07559512891617     13.99250216520993      4.26992748722832
  H   7.04274406652439     14.10762534929327      4.78054839849417
  H   5.35950374084466     14.66238700313186      4.75638838906362
  H   6.20748410524269     14.33824321300433      3.23434279102115
  C   8.42352946758181     10.57367456377735      1.05203585910449
  H   9.17427594284696      9.81909554847313      0.78017703696376
  H   8.75504540938866     11.53514596297641      0.63404223390819
  C   7.07759883087906     10.16592374232874      0.47578306160255
  C   6.61181228326572     10.62325899152187     -0.77089737027080
  C   5.35773330584782     10.15530019459571     -1.20196508363738
  H   4.96316875483454     10.48927077662626     -2.15985806903852
  C   4.61660093643335      9.27604395898575     -0.40785193137118
  H   3.64194461387023      8.91410052251625     -0.72457038410896
  C   5.14835079474132      8.86653154802906      0.81296616396749
  H   4.61877395261271      8.19634695885563      1.48435458754767
  C   7.42249599511232     11.57503539829837     -1.62280421563216
  H   7.58222732107973     12.53646272950979     -1.11376399617988
  H   6.90495023218874     11.78189486170531     -2.56513576007787
  H   8.40986746412497     11.16016982049945     -1.86650674441343
  C   9.01466255403548      6.76137486975184      1.77068950409639
  C   9.90326121705671      5.75695603904531      1.19324504595778
  H   10.02617034787885      5.93629377870380      0.11755161879242
  H   10.88612876398998      5.79757263511788      1.67947363331367
  H   9.47760006823798      4.75572119537923      1.33928817484364
  C   5.73436101928149      5.81110747586707      2.81276283152178
  H   4.74284161649063      5.34749448456449      2.85534214605063
  H   6.48894818206186      5.14062441180145      3.23995522894823
  H   5.98924564708240      6.05258362666710      1.77947490848649
  H   5.41809669920110      6.90414363511165      4.43971203690168
