87
Coordinates from ORCA-job BUQVOZ-oxo_1_5_tpss_d4_lanl2dz_631gpol_Fe2.opt
  Fe  -0.04949640938037     13.18074573360810      3.95157820482881
  S   2.55076258737242     14.02995152744463      7.80405573491260
  P   1.70558781106521     14.48017550197495      2.83631318620456
  P   0.94929028860108     11.42288104138850      2.60225197101363
  N   1.20117209461590     13.34782522153963      5.42456719309677
  N   3.51580073670867     12.42258722694976      2.21243360668200
  N   1.86943115310546     13.07362151025723      0.47260224702370
  C   1.77635553458292     13.64440390632902      6.43887263835494
  C   3.39862945223409     13.64672871623922      3.00953220051704
  H   4.17110044205889     14.35524094656697      2.67778310290162
  H   3.56717443764988     13.41520943010315      4.06745665007783
  C   1.55389733643532     14.42139190300556      0.96730105084546
  H   0.52752846487212     14.67707903257402      0.67917282922851
  H   2.24597800533151     15.13634906126869      0.49974063812054
  C   3.24289421300457     12.65902844146700      0.78442198534503
  H   3.45219895496970     11.72963543530999      0.24102206448182
  H   3.92629696602618     13.44243678938216      0.43592159017068
  C   0.89346627696110     12.03418921891437      0.80458361810042
  H   1.07923769603867     11.16434340618033      0.15826158268537
  H   -0.12223574181879     12.40395393561814      0.62109153887793
  C   2.82840024914628     11.24267370191845      2.74306849415093
  H   3.11098291318434     11.09106421034547      3.79034188340397
  H   3.15650689601401     10.36898082601226      2.16125578804111
  C   1.94438106583674     16.20409464824627      3.34808223748939
  C   1.38898333555417     17.25987106823398      2.59598797558034
  H   0.83059778861464     17.05455291328824      1.68415392543189
  C   1.55749047493441     18.58207204253437      3.01855887937502
  H   1.14097466074654     19.39358306433746      2.42488366291775
  C   2.25767096081913     18.86130723270339      4.19994850346253
  H   2.38889619290605     19.89229044566352      4.52361065177782
  C   2.78962003530468     17.81370518748288      4.96486112435293
  H   3.33236908900471     18.02573524651590      5.88416134734979
  C   2.63477333826196     16.48887155944989      4.54626059667993
  H   3.05395659034286     15.68571056807893      5.14933308501412
  C   0.14270325115824      9.80206280375562      2.45751204699204
  C   -1.25563253470227      9.84412724105563      2.26422855019442
  H   -1.75905424389369     10.81136486865161      2.21772839269563
  C   -1.97911836038898      8.65527084927113      2.12605896763714
  H   -3.05550553346641      8.68944417754535      1.96486490953341
  C   -1.31493553806064      7.42173559793921      2.18670915978229
  H   -1.87688001367314      6.49576626395210      2.07960741813118
  C   0.07167924464145      7.37857994512264      2.38538581392782
  H   0.58512739055502      6.42065360978984      2.43954169879843
  C   0.80384860022341      8.56345132924236      2.52164565471553
  H   1.87676011940203      8.51481028164217      2.69515848536170
  P   -1.70966476542491     14.23130408019677      5.18580326782975
  P   -1.00390220274144     11.25084281464685      5.47069374783673
  O   -1.15251264671190     13.37467555195060      2.71117438857716
  N   -3.58647471788002     12.21840733717793      5.69105135423218
  N   -2.07175023805659     12.85624894430442      7.55561609114841
  C   -3.38120938721599     13.42474986686676      4.87950148487089
  H   -4.17189285860915     14.14869725026924      5.12353367808466
  H   -3.43881501862980     13.17554334406309      3.81355045680626
  C   -1.67062037168259     14.17673051507095      7.06259082022515
  H   -0.66628431053985     14.41606357602785      7.43144152319058
  H   -2.37524322820462     14.92696814493618      7.45054899148619
  C   -3.42789200580860     12.47882626984572      7.13096454542140
  H   -3.70936405811875     11.56738489970409      7.67162732511863
  H   -4.11328480985595     13.28866269033650      7.40940977136970
  C   -1.10284046240645     11.78870011401207      7.29909569043676
  H   -1.40298924797071     10.90469573865286      7.87970172090013
  H   -0.10805844031017     12.09950983716772      7.63838786305701
  C   -2.86387044097286     11.01332816722362      5.25014304421192
  H   -3.09798613836616     10.80991123226811      4.19984470227292
  H   -3.22753563209703     10.17040798605423      5.85539012326787
  C   -1.76480479072954     15.96093033255316      4.65409225366816
  C   -1.25934274348686     16.98546864193336      5.48181393201547
  H   -0.84080118263257     16.75232031174941      6.45943364939851
  C   -1.29615543588716     18.31285336912100      5.04548950717982
  H   -0.91036889674757     19.10181996792245      5.68744520983004
  C   -1.82762855950545     18.62452953792878      3.78650892180491
  H   -1.86351257591214     19.66076318274060      3.45509916457010
  C   -2.30516558990451     17.60586333857870      2.94933464258870
  H   -2.71068417794775     17.84991225901646      1.96895129783354
  C   -2.26508253668477     16.27408160849670      3.37133542513611
  H   -2.60927925620708     15.47755825074780      2.71484530786325
  C   -0.16664882109150      9.64264808426135      5.63658157980813
  C   1.23558470887517      9.70063706768984      5.79763430008271
  H   1.73377906847910     10.67107017307957      5.81368995957408
  C   1.97639257718251      8.52476138459424      5.95061767296260
  H   3.05509304393004      8.57631625943614      6.09009287572255
  C   1.32640397432322      7.28197661594569      5.93376098787012
  H   1.90127884198218      6.36549780837337      6.05369229408454
  C   -0.06336016516307      7.21964332184213      5.76630316830434
  H   -0.56690882246871      6.25464980956924      5.75059433686086
  C   -0.81186346658040      8.39357502555033      5.61804459706114
  H   -1.88880048511974      8.32870761918778      5.47585543916774
