92
Coordinates from ORCA-job BUQVOZ-CH3OH_1_1_tpss_d4_lanl2dz_631gpol_Fe2.opt
  Fe  0.00249104502172     12.84426599987703      4.03539762989210
  S   3.06578013224167     13.66722693795985      7.46588512787906
  P   1.38937787852956     14.30042167119712      2.97213529303169
  P   1.07564911333712     11.31984600026947      2.75417720017723
  N   1.34738551932702     12.90903376880872      5.35407012102315
  N   3.54365592850493     12.54032313987497      2.46767116116230
  N   1.96119911893309     12.94589661344367      0.60386872243446
  C   2.06718974455685     13.23825070656817      6.25288834829090
  C   3.20624154853514     13.77257467746054      3.18021026900927
  H   3.81829893894019     14.58454896956727      2.76187872473275
  H   3.44970446596568     13.66581325355643      4.24031981959761
  C   1.45871485164667     14.24281171082256      1.07704838549795
  H   0.47972337931641     14.43920578776421      0.62546020384308
  H   2.15071609508548     15.02493331492277      0.73308033507427
  C   3.35068825945778     12.69159990840915      1.02231586809535
  H   3.68877612101550     11.77323117976076      0.52681789145052
  H   3.96636533689111     13.53367917048215      0.68439146701201
  C   1.11089925300967     11.79636439186461      0.90521012713513
  H   1.49706986561323     10.92782855985655      0.35265500882991
  H   0.09162566852972     11.98662728371949      0.54737446056511
  C   2.94242657708890     11.31382385144690      3.00469825685967
  H   3.16349346382328     11.23731590312869      4.07524422648432
  H   3.38756797198175     10.45605413702708      2.48133436336882
  C   1.54117325914155     16.07849668765520      3.36754793832291
  C   0.97347330330578     17.06708954275473      2.54129092207291
  H   0.35129617852259     16.78654772224531      1.69189260240946
  C   1.21561012619979     18.42068595146813      2.79669762673078
  H   0.77802574511378     19.17870233092287      2.14986593330602
  C   2.02563803541575     18.79839519240440      3.87634276825425
  H   2.22677129476877     19.85207892235518      4.06163397868420
  C   2.57119132290878     17.82134699259561      4.71890612232875
  H   3.19343604701241     18.10978287233449      5.56426531845561
  C   2.32539569187329     16.46554852694934      4.47441406027949
  H   2.75460785065491     15.71788043211203      5.14078451511311
  C   0.54424858828319      9.57604189630153      2.56022314542226
  C   -0.69942240433485      9.31746017849747      1.94789789819043
  H   -1.32104385797497     10.13981945914720      1.58172150186814
  C   -1.14292599835232      8.00795369212235      1.73883900617642
  H   -2.10101850562563      7.82777600487494      1.25444177805540
  C   -0.33924171207750      6.93230309992324      2.13829643385101
  H   -0.67641666306267      5.91068551002199      1.97458728887256
  C   0.90049581882579      7.17501627829768      2.74285243275562
  H   1.52641216468875      6.34222151678789      3.05666902517152
  C   1.34163805560742      8.48616791310619      2.95297009470977
  H   2.29925340853167      8.65425499484481      3.43939521099063
  P   -1.28232939246798     14.34013016242762      5.16927677492791
  P   -0.95499555341358     11.35914494404717      5.44463972283786
  O   -1.66427777742213     12.71630411904201      2.69014732154015
  N   -3.36611181526424     12.60072076749762      5.95203526229440
  N   -1.58545036834668     13.03533505375760      7.62383580716926
  C   -3.10723955976182     13.79377288295706      5.14174699628494
  H   -3.70771951139709     14.61835308571341      5.55223082754733
  H   -3.43150508164915     13.60698722166702      4.11322021060499
  C   -1.07995936365834     14.28454755239339      7.05003518582763
  H   -0.02399491884856     14.40516524632518      7.31887441242415
  H   -1.65020351732184     15.12094021916440      7.47792888485685
  C   -3.01345944490605     12.82378010270372      7.36442256450213
  H   -3.33669774703028     11.94673291585216      7.93826711863782
  H   -3.56387733867651     13.70694888693861      7.71043753703927
  C   -0.80918607261082     11.85125079412767      7.27286403925543
  H   -1.19017437023502     10.99987417202767      7.85509019958480
  H   0.24425518970165     12.00148220061545      7.52895859387088
  C   -2.84246378462685     11.33197971010737      5.42019120472837
  H   -3.23079590897855     11.17920775673368      4.40592875584310
  H   -3.21487462472063     10.51732850294763      6.05817479811923
  C   -1.44110395855666     16.13470219739755      4.84092810512893
  C   -0.70041525739103     17.06911854617302      5.59020910231164
  H   0.02122111264828     16.73219047317961      6.33164011240371
  C   -0.88568160102191     18.44018954675909      5.38729633778905
  H   -0.31141346986554     19.15187489395502      5.97656014715189
  C   -1.80343818402311     18.89654433096749      4.43194302594175
  H   -1.94794481280044     19.96484852536165      4.28182887490581
  C   -2.53913543505829     17.97619487364998      3.67560085201592
  H   -3.26315852024204     18.32487425016913      2.94091533748806
  C   -2.36076179533179     16.60335760438478      3.88033223695688
  H   -2.96978192537600     15.90019600956020      3.31294815267858
  C   -0.33395558237371      9.64987177966485      5.60544734177108
  C   0.99685235341734      9.50762585482293      6.05554878283169
  H   1.61968730591871     10.39171598075942      6.19202984157728
  C   1.50789093598271      8.23856189951946      6.34561896591380
  H   2.52816929877649      8.13782941024312      6.71211240440732
  C   0.70289915478161      7.10317062640082      6.17783914156925
  H   1.09703460485190      6.11608953637375      6.41281812588224
  C   -0.61013091766799      7.23832084613694      5.70791673822904
  H   -1.23284368615511      6.35667950782733      5.56715266973056
  C   -1.13176920451941      8.50665523742520      5.42513560638075
  H   -2.15503035356792      8.59689159887135      5.06413016302800
  C   -2.00038734126963     13.65723037961010      1.64054388362285
  H   -1.50385094148714     13.40108693711134      0.69822657129403
  H   -3.08831870493714     13.67391502206328      1.49952325509871
  H   -1.64957104271840     14.62836614377133      1.99554573332754
  H   -1.76940909715808     11.79797903528022      2.37171365919816
