87
Coordinates from ORCA-job BUQVOZ-oxo_1_3_tpss_d4_lanl2dz_631gpol_Fe2.opt
  Fe  -0.03346947392051     12.88240677650683      3.99690985628834
  S   3.45954125222729     12.88729822768836      7.24075097471394
  P   1.36362012659717     14.40907042505002      2.98889936217452
  P   0.98459466686503     11.38898494724468      2.60138301587389
  N   1.40863533107052     12.87145652156242      5.30607420914354
  N   3.37582763961352     12.64464299136705      2.10081919775936
  N   1.54221593610946     13.20053388622439      0.51730955107342
  C   2.28221845528992     12.87893113093823      6.12837802249862
  C   3.15798002296383     13.81085870627440      2.95666374964218
  H   3.75679529134929     14.64322236438074      2.55869193470879
  H   3.49572113506186     13.60538288634828      3.97754512535074
  C   1.10201021603344     14.46290533254624      1.13111171582993
  H   0.04112375112649     14.62429636716857      0.90872406673574
  H   1.68938726949402     15.28087507789218      0.69030770187913
  C   2.97432703415427     12.92216579789114      0.71271670206464
  H   3.23368315313397     12.05173023721578      0.09823780627845
  H   3.54539679129698     13.79177633259363      0.36603691129515
  C   0.72997177620675     12.02636392650565      0.84362462574092
  H   0.98960584517842     11.21925860856949      0.14366317496666
  H   -0.33499064437676     12.26353018308734      0.73631855773662
  C   2.85770777530792     11.36870897640478      2.62200637006739
  H   3.22729021246684     11.21380889252574      3.64230135284100
  H   3.23599861893521     10.55798729628444      1.98308958361429
  C   1.55579925275336     16.09089284433340      3.65378529333551
  C   1.34007656920081     17.24196531140967      2.87392300583557
  H   0.97847293253139     17.15955650255995      1.85126495560551
  C   1.57463530466860     18.50870218770989      3.42042826784636
  H   1.40369890688745     19.39544248789741      2.81300827439665
  C   2.02457691201125     18.63636437331585      4.74098521885613
  H   2.21223043777106     19.62411874362740      5.15793980801612
  C   2.23477356715909     17.49277608942904      5.52384481182175
  H   2.59197429737198     17.58600882279794      6.54792075170060
  C   2.00052614795645     16.22317305873892      4.98733082332883
  H   2.17392709639848     15.33877311079980      5.59645759178607
  C   0.30279527373604      9.71086901432583      2.47460540012876
  C   -1.07580500254562      9.61079015569190      2.18550784264622
  H   -1.67764083598929     10.51801234205221      2.12177767724795
  C   -1.65469299081337      8.35560999290775      1.97570117465143
  H   -2.71421533732926      8.28082689335154      1.73623497361168
  C   -0.86985194068545      7.19691231833307      2.06676313060238
  H   -1.32017798599126      6.22032348526445      1.89875558071710
  C   0.49250497446229      7.29352703020460      2.37837724607611
  H   1.09839780751367      6.39349528293051      2.46278887916509
  C   1.08344716777284      8.54634995959915      2.58042999840811
  H   2.14128701927871      8.60862308188183      2.82776872490248
  P   -1.33037798579458     14.39095924160237      5.11748118618725
  P   -0.92073122024651     11.37191374708433      5.48749064776103
  O   -1.27494889088559     12.86429018985422      2.87227339421117
  N   -3.36469431037150     12.59353487674908      5.86690528901753
  N   -1.62386424980795     13.15589219793763      7.55144132702751
  C   -3.10666017015827     13.76178092624998      5.02333220029860
  H   -3.77729176509498     14.57385863458290      5.33891089962151
  H   -3.30686440678130     13.51975701201658      3.97300127739502
  C   -1.14686159594861     14.42792796417297      6.98211542526129
  H   -0.09863441238605     14.58229211661148      7.26293437506770
  H   -1.75043619973495     15.24178342532722      7.40863257326061
  C   -3.04208923599599     12.87855682185003      7.27457786266789
  H   -3.33737727774995     12.01192938926363      7.87815068514527
  H   -3.63050155147570     13.75085991153395      7.58341563649748
  C   -0.79151133506154     11.98494187698263      7.27197403326563
  H   -1.13570871778400     11.16097898285645      7.91401135887847
  H   0.25479389845100     12.19365439257655      7.51718058717013
  C   -2.79279413562004     11.32871513718382      5.37978799040848
  H   -3.09798428026453     11.17010608679684      4.33903674817703
  H   -3.18925140194236     10.51154885445324      5.99912462110624
  C   -1.51090188791715     16.05689077107343      4.41884321618110
  C   -1.36962663913241     17.23705637729964      5.16932460687480
  H   -1.06163107592785     17.19731217906253      6.21221245176234
  C   -1.61333018430919     18.47639460186718      4.56566638471785
  H   -1.50061138857480     19.38918389374367      5.14744388699695
  C   -2.00131977262535     18.54361048426631      3.22119189307545
  H   -2.19923817586563     19.51007215271087      2.76135153241365
  C   -2.12984153440505     17.36866162725996      2.46613722819965
  H   -2.42920014717435     17.42077919639310      1.42054896543565
  C   -1.87982480790087     16.12685210636775      3.05764528357580
  H   -1.97176367607020     15.20588245803424      2.48037591982105
  C   -0.26256865023092      9.68270794521955      5.62258457885237
  C   1.08991387961981      9.52917878896407      5.99793991476740
  H   1.71640117907298     10.40377079901847      6.15958447989043
  C   1.62375149869202      8.24980698405059      6.17946132929307
  H   2.66303041072990      8.13917590208078      6.48373781957249
  C   0.81964288594963      7.11824381665719      5.98507283215032
  H   1.23510572017372      6.12304237652868      6.13234216944782
  C   -0.51997084007772      7.26714226972202      5.60316213140013
  H   -1.14432737105551      6.38992147548482      5.44484519243361
  C   -1.06389760710125      8.54340149109688      5.42153356418803
  H   -2.10233432752052      8.64312153597840      5.11325350156000
