65
Coordinates from ORCA-job BADDAN-oxo_1_2_tpss_d4_lanl2dz_631gpol_Mn2.opt
  Mn  2.30740254526297      6.58565787790958     10.77977929127161
  S   4.44947502822106      2.68648259237911     10.58999180306761
  N   1.12975390216301      6.63542155761682     12.39717054477946
  N   2.38413245941750      8.57593609068384     11.18203261485415
  N   3.52890803313198      6.49915256895330      9.20285738739539
  N   4.27523100109147      6.60593605155658     11.73174173650708
  N   2.52024724701881      4.70440081549242     10.95134288772277
  O   1.03996578947370      6.79558736058290      9.81058260832764
  C   0.51748455161068      5.58370474974045     12.96724928757022
  H   0.82657726031588      4.60963825522178     12.59728717346013
  C   -0.45730935459223      5.75193499492291     13.95857344731125
  H   -0.93072483509778      4.87743240183803     14.39724551825045
  C   -0.81639313956055      7.04632443815049     14.35421022671963
  H   -1.57875964257847      7.20114036848625     15.11414707950792
  C   -0.18373338409538      8.14021117230542     13.75319628008299
  H   -0.42932051490326      9.16183302244916     14.03260686787536
  C   0.78775523386842      7.89794296246383     12.77684397705203
  C   1.54589544547929      8.93906931772989     12.09824206916582
  H   1.41800197235554      9.97972603544401     12.39481173447656
  C   3.24814365721138      9.55349176892202     10.48276637681456
  H   4.26917321980439      9.21559013473632     10.71152346963655
  C   3.04548202383813      9.46973750860731      8.97681272246253
  C   1.76102437379687      9.38682832992831      8.41681862567126
  H   0.88965405248265      9.30188782134631      9.06314281668275
  C   1.60152897733298      9.38352835985545      7.02564346655286
  H   0.60298914341893      9.31125297035442      6.59854777426643
  C   2.72051296896033      9.47931182467289      6.18702423330505
  H   2.59326862574299      9.48630136072555      5.10595861171717
  C   4.00383432103811      9.57345478626316      6.74433108277019
  H   4.87676340936678      9.65275960905480      6.09877441603579
  C   4.16395172084059      9.56523591571318      8.13423732272791
  H   5.16202658224044      9.63423560533304      8.56778070534395
  C   3.07926501768628     11.00593262230426     10.95992687949866
  H   3.26964169641990     11.10987429651589     12.03521010746329
  H   2.07585246847528     11.38251929623799     10.72132611273683
  H   3.80048197031060     11.62903601733378     10.41930379448358
  C   3.08834517602719      6.38852527833898      7.93693746413719
  H   2.01160025679438      6.45073066489751      7.81784018812727
  C   3.96781373445364      6.21424358647100      6.86438737086460
  H   3.56660649311695      6.13045626371195      5.85842417375063
  C   5.34500957478249      6.14588450884831      7.10463265624238
  H   6.04613407452451      6.00512462257003      6.28553180623917
  C   5.80326027841308      6.24904001286865      8.42011655466906
  H   6.86185163433062      6.18230913155454      8.66003824122556
  C   4.86814473323504      6.41820636325795      9.44799450763913
  C   5.22056358711861      6.47702274750407     10.85592753302621
  H   6.26977325567617      6.37430191752313     11.15141999820872
  C   4.65851085972512      6.55648920893255     13.16694974008012
  H   5.76027327077357      6.54289845455764     13.20706766002844
  C   4.19210790374542      7.82883781259818     13.86389268392560
  C   4.85278778174590      9.03481535267061     13.56854256692399
  H   5.68127338132179      9.03203657099322     12.85893847015592
  C   4.47760481486403     10.22925918553671     14.19208536559134
  H   5.01408048659001     11.15041677842314     13.97036525448062
  C   3.42601871159181     10.23266209910358     15.12142959851710
  H   3.13872854625140     11.15780312130020     15.61782087554208
  C   2.77332660296225      9.03339203375302     15.43237671216005
  H   1.97499136036027      9.02293994041695     16.17277665666199
  C   3.15743838179645      7.83701244708216     14.81032884816806
  H   2.65044748864148      6.91105504205299     15.07327451806421
  C   4.14785746211513      5.24791939273438     13.78362550817475
  H   4.58473184982851      4.39143988786438     13.25895484886099
  H   3.05893380940435      5.16885583048691     13.71354924200627
  H   4.44373955205017      5.20512355822296     14.83916502606078
  C   3.34526111021006      3.84208732389204     10.76446487689932
