66
Coordinates from ORCA-job BADDAN-OH_1_1_tpss_d4_lanl2dz_631gpol_Mn2.opt
  Mn  2.38666137698639      6.61348235746378     10.84979053242229
  S   4.38672614747308      2.62988799239267     10.55958492087000
  N   1.16362603687688      6.68800808030945     12.38078615773354
  N   2.38550427270841      8.59976369273789     11.18803609955424
  N   3.54919093539418      6.52033832327858      9.21689086594501
  N   4.28991181032147      6.61244572084912     11.71490239353562
  N   2.54236047018999      4.71717731605127     10.96746748781580
  O   0.98621384192063      6.71395231027883      9.71627821697312
  C   0.53649599821633      5.62750538198454     12.94410473624792
  H   0.84924721801851      4.65597278523565     12.57199637293776
  C   -0.43989854955394      5.78511946362980     13.92808559839168
  H   -0.90844622474448      4.90283322336163     14.35657071391438
  C   -0.80910973188630      7.07591188148066     14.34265372708335
  H   -1.57268775901207      7.21691065631935     15.10379207402157
  C   -0.18256494922920      8.17340898632484     13.75274918676484
  H   -0.43235704185451      9.19276797551762     14.03741815507717
  C   0.79627927158116      7.94949838048925     12.77414344300600
  C   1.54208213696519      8.98630287976721     12.10019489877565
  H   1.41440922873965     10.03082184358296     12.37938780417466
  C   3.25603320498427      9.57127323468927     10.48429071473113
  H   4.27551888248699      9.23251229362199     10.72011760913724
  C   3.06558719429104      9.48291508781742      8.97694634285839
  C   1.78626105825682      9.41208397182847      8.40547054743909
  H   0.91040578702456      9.34057188551044      9.04663005911313
  C   1.63635416662603      9.40543393332261      7.01384948663610
  H   0.64072503401602      9.34276068155917      6.57834280405099
  C   2.76283456197023      9.48557441086055      6.18367427869999
  H   2.64381855170576      9.48885086599862      5.10167196293296
  C   4.04237376617269      9.56952529297001      6.75094417469828
  H   4.92108439560923      9.63787353265233      6.11201804179070
  C   4.19093583764871      9.56546369686247      8.14199018025456
  H   5.18609126788815      9.62756504751566      8.58343272859756
  C   3.09438351683221     11.02769483375682     10.95167867974823
  H   3.28015453064112     11.13571347748030     12.02730307048108
  H   2.09454781076821     11.41007561534531     10.70696961401046
  H   3.82197068071280     11.64315429789086     10.41076786373183
  C   3.08391037148925      6.38876551499108      7.96309451944936
  H   2.00397135140748      6.43851008307627      7.86824328371600
  C   3.94819801515205      6.21004201465596      6.87708588079051
  H   3.53231930267314      6.11029696770044      5.87847479406292
  C   5.32974351469309      6.16094717125373      7.09408262242742
  H   6.01758874980070      6.01959549354953      6.26371074282863
  C   5.81335105596087      6.28401555255044      8.39994519009023
  H   6.87711973699053      6.23126078098057      8.61955175540211
  C   4.89267649948691      6.45264825467291      9.43969950052550
  C   5.24739180653826      6.51115687067300     10.84581218334917
  H   6.29468707616143      6.42635513070176     11.15016242688392
  C   4.65618925006340      6.55327112814291     13.15538176836936
  H   5.75738590741875      6.53853030324331     13.20414294324544
  C   4.18430064606404      7.82209147241800     13.85456466920077
  C   4.84139133853449      9.03106465927330     13.56322610278662
  H   5.66839836762522      9.03407515271894     12.85180714260831
  C   4.46475832928660     10.22142857256255     14.19332030202574
  H   4.99811364540242     11.14510937765205     13.97445556020865
  C   3.41662338608529     10.21699402015715     15.12666950801936
  H   3.12855377186285     11.13888746205326     15.62872932328132
  C   2.76821926061260      9.01462257970685     15.43382555946071
  H   1.97170739801449      8.99826951094506     16.17598617078022
  C   3.15228446150995      7.82262647090224     14.80373923159598
  H   2.64686728540943      6.89462205801324     15.06219281980627
  C   4.13914351784444      5.24146553451602     13.75828414687753
  H   4.58478755659715      4.38784260741465     13.23636892500844
  H   3.05149526508800      5.16243902797113     13.67133633577561
  H   4.42056767833577      5.19465261973825     14.81758898052200
  C   3.32489268470358      3.81909819835009     10.77387176238792
  H   0.16598803244140      7.03315399867741     10.15219430435695
