49
Coordinates from ORCA-job ASIYOQ_1_1_tpss_d4_lanl2dz_631gpol_Fe2.opt
  Fe  1.30691700329473      0.52486395570806      3.47274831840628
  S   -2.24734134887140     -1.72641109229212      1.91318762558999
  N   2.04271587492737     -1.19151757552596      3.54853369070266
  N   1.51824631864663      0.28033614196624      1.61487501713915
  N   1.10309685676094      0.89244392013081      5.36652006455806
  N   2.91430057762645      1.50468458301473      3.72753227242423
  N   -0.47195472811893     -0.02549014789722      3.29335945832619
  C   2.36204785522696     -1.88247594833612      4.66518440473739
  H   2.28508465990769     -1.33866827358626      5.60035750595158
  C   2.75145244823068     -3.22154394601826      4.61638078736722
  H   2.99559831757714     -3.73761949648213      5.54116105672836
  C   2.81075454743216     -3.87764878528631      3.37949362907345
  H   3.09841374535668     -4.92425792876053      3.31910395430051
  C   2.49683866000780     -3.16216056294913      2.22172194461248
  H   2.53555224704067     -3.63511158351688      1.24398661266500
  C   2.12281266610232     -1.81700299573329      2.32325405535208
  C   1.81915131040434     -0.92801237965985      1.20516689182441
  C   1.27306309671552      1.41008185093526      0.72282497000184
  H   0.59920731549764      2.09989423132334      1.25081479260763
  H   0.77833310697419      1.10316616817451     -0.20563603975653
  C   2.60216802902208      2.12991042524670      0.37502181235927
  O   2.35393382011249      3.11888134380254     -0.61821503001965
  H   1.84566148444577      3.84871403051140     -0.20757564080130
  H   3.26281257045184      1.40343604044286     -0.11839620886656
  C   3.34471474469458      2.73525643966295      1.58157338953014
  H   2.69702115489479      3.47181076122177      2.08386797867243
  H   4.19883601169848      3.28780502158324      1.16906733420212
  C   3.87717035849988      1.72640340986043      2.63501457198464
  H   4.06489776913514      0.75013811053072      2.17053457384913
  H   4.83047455871411      2.08419342798372      3.03785094813347
  C   0.08633131754953      0.48268299644649      6.15682948487500
  H   -0.67297551721473     -0.11150310036845      5.65593982678016
  C   0.01781977031633      0.81970169640217      7.51018855697159
  H   -0.81875233479896      0.46853083477040      8.10841065623179
  C   1.02968472636716      1.61364114684330      8.06692814462978
  H   1.00220269543180      1.89231044001797      9.11774488868786
  C   2.07747652989867      2.05145590937896      7.25176958127644
  H   2.86794726442040      2.67206004389238      7.66394075454844
  C   2.09853995918029      1.67813241733009      5.89993261750420
  C   3.12565484200206      2.02956536419085      4.92164421738286
  C   1.87648524190302     -1.40524288889374     -0.21812218780160
  H   1.70769760266621     -0.59552201484926     -0.93225787293899
  H   1.10685150225442     -2.17273167886434     -0.38294937483703
  H   2.85329324409052     -1.85698405025769     -0.43836777751136
  C   4.30492708349937      2.90298032323159      5.26882823900973
  H   4.44259966103662      3.69756049079935      4.52495506103785
  H   5.23500706717853      2.31743344030565      5.31173379177190
  H   4.17036907628387      3.38370313582617      6.24132200138309
  C   -1.21834076447417     -0.76107365225715      2.68871464934208
