35
Coordinates from ORCA-job COKKIX-OH_0_1_tpss_d4_lanl2dz_631gpol_Fe3.opt
  Fe  20.51682318668113     12.57069086104118      7.39111762045996
  N   20.00394451890534     10.65667606835554      7.75790868170181
  N   22.06863953292081     11.63347567967913      6.51315336522201
  N   19.02832125585447     12.03515887138654      4.72220622727766
  N   21.33409670470798     15.28105738388770      6.25651562018002
  N   17.93514725218289     13.67566685691335      8.59301061045857
  C   18.92600417789295     13.30290676758025      8.07274911873757
  C   20.94339997529327     14.25455223130790      6.68753836936653
  C   19.56357097421555     12.30618862505865      5.73759826412510
  O   21.38906225406395     12.74663334932273      8.92225038720217
  C   18.88393686688483     10.27073616648810      8.39681213941548
  H   18.22380855703675     11.07357973221535      8.71442747799814
  C   18.59945275835210      8.92594329014112      8.62429146527411
  H   17.68462802635916      8.65800077477129      9.14837280353345
  C   19.48809990715567      7.93459167072307      8.17279944308861
  C   19.19673057979463      6.46849191421325      8.38283043532997
  H   20.05935714749681      5.84521685855189      8.12072422029044
  H   18.34715047924463      6.15507655430953      7.75946153821555
  H   18.92615978650507      6.26898645517816      9.42796882118861
  C   20.64479711386720      8.35991716655510      7.50463717987180
  H   21.35557470077638      7.62334303607882      7.13798782639916
  C   20.88256273321013      9.72466491762184      7.30479896076354
  C   22.04904199359484     10.27680009428008      6.59649967109021
  C   23.06714894001380      9.50660541434086      6.02369853365653
  H   23.03704491166045      8.42214749350524      6.09679501985677
  C   24.12620134537904     10.12761086035771      5.34599985148574
  C   25.21971958511957      9.31983764078610      4.69035538209241
  H   25.21628967412999      8.28059752679185      5.03891890725598
  H   26.20646951952086      9.75502263521918      4.89364698902258
  H   25.08325916053251      9.31214078693625      3.59917842366525
  C   24.11660092384484     11.53151631532503      5.27917041943834
  H   24.91088744108055     12.07070363746737      4.76756333555089
  C   23.07597610439272     12.24875042836971      5.86620300689895
  H   23.01549678491666     13.33312824389946      5.82651632235634
  H   21.09762512641155     13.53962369134026      9.42496356152942
