34
Coordinates from ORCA-job COKKIX-oxo_0_4_tpss_d4_lanl2dz_631gpol_Fe3.opt
  Fe  20.48942286316607     12.61566789984565      7.38676645561578
  N   19.99966002456613     10.67107149734017      7.77784849042894
  N   22.08406572863957     11.65027596863038      6.54538693956314
  N   19.17527940901294     11.98045855578761      4.59296023310138
  N   21.40722406522197     15.31949644579373      6.32380227542827
  N   17.80213694155463     13.63351250572247      8.39925629899759
  C   18.85370373097225     13.30247475258662      7.97528562382180
  C   20.98953178714416     14.29910454855302      6.74761548329095
  C   19.63002462336031     12.29023184333854      5.63424036948847
  O   21.25118198079403     12.79980377587190      8.87092683241219
  C   18.89195738793833     10.27604279042607      8.43409478124856
  H   18.23091107501519     11.06929327612772      8.76932744774667
  C   18.61255460486009      8.92988080351194      8.65659479690756
  H   17.70449663547020      8.65987231958412      9.19105365590569
  C   19.49688601563318      7.94255329535839      8.18939910074010
  C   19.21866945283078      6.47504918814502      8.40659431495566
  H   20.03751968750056      5.85090865460354      8.03113535530236
  H   18.29508359918902      6.17855817949286      7.89021424405306
  H   19.07926724567924      6.25971703357077      9.47459988863714
  C   20.64260198281980      8.37632094667380      7.50970814135128
  H   21.35304150967799      7.64461217958040      7.13339964130185
  C   20.87521548237591      9.74275242836614      7.31267962420535
  C   22.04075003598183     10.29336093380701      6.60362234215254
  C   23.04283261287127      9.51815461375951      6.00920647018030
  H   22.99172423356704      8.43330564963767      6.06018247427001
  C   24.10896865762860     10.13104587782818      5.33674504851114
  C   25.17936750002175      9.31533074423938      4.65366772042314
  H   25.18543901379253      8.27941284231998      5.01186643132833
  H   26.17283843182106      9.75063801681072      4.81901487492956
  H   25.00489230687031      9.29671566528079      3.56792230556348
  C   24.12642194191085     11.53534710847214      5.30268000275855
  H   24.92788767120046     12.07224287072624      4.80053207857394
  C   23.10308558679273     12.25947542189974      5.91044664943258
  H   23.07125617411804     13.34431136630707      5.89352360737221
