39
Coordinates from ORCA-job COKKIX-CH3OH_0_4_tpss_d4_lanl2dz_631gpol_Fe3.opt
  Fe  20.20274912633770     12.53908333154370      6.83576050362379
  N   19.77575555404908     10.66608459951513      7.36398801426732
  N   21.89044880870964     11.61814117922711      6.15382124622816
  N   18.75969931665509     12.12240772368861      4.04707528344890
  N   21.48037552220337     15.29137462124231      6.41378883387936
  N   18.67857496062107     13.55409518559779      9.34277983884677
  C   19.24287576634406     13.24604245357522      8.35142540767158
  C   20.90820500511974     14.27220503942927      6.59001703291810
  C   19.28531378639972     12.34310886064312      5.08213343122679
  O   21.74347094239134     12.13666255253983      8.96158618374552
  C   18.64278946126846     10.27366792563881      7.98302715762446
  H   17.94748593762473     11.06847118682244      8.23493890656459
  C   18.39552582724381      8.94059870889721      8.29489986759694
  H   17.46684502977084      8.67421034519885      8.79463773562110
  C   19.34918724013001      7.95839245561085      7.97070826658894
  C   19.11549745018851      6.50406147577812      8.29877609913175
  H   19.98535229357244      5.88878188619487      8.04210844824067
  H   18.24699679793389      6.11995021707335      7.74553313216043
  H   18.90290442782264      6.37588222760296      9.36879029801699
  C   20.51953474370892      8.38330905229682      7.32818779519108
  H   21.28016546475228      7.65321592583798      7.06280244790805
  C   20.71435189075052      9.73687261497296      7.02877101736424
  C   21.89444531999237     10.26915392416263      6.32753739199168
  C   22.94371395249892      9.48166502009028      5.83921146141975
  H   22.92920352028112      8.40342064784357      5.97949175714781
  C   24.01486890832281     10.07581456233535      5.15716348816250
  C   25.14709527123732      9.24766545107778      4.59980932820922
  H   25.12396815043869      8.22237266710959      4.98680059183201
  H   26.11920520733355      9.69327928852355      4.84804227155960
  H   25.08030577397238      9.19909771003305      3.50333401823359
  C   23.98259184214652     11.47202207358291      4.99290935285064
  H   24.78569228462291     11.99049983346879      4.47329087276505
  C   22.91032884590203     12.20502856632361      5.49756169204610
  H   22.84000044069002     13.28487410312125      5.39583654755077
  C   22.86721412807005     13.03517000565254      9.06522335022750
  H   22.62030513561621     14.03306879162220      8.68157355125479
  H   23.21141865087146     13.10355500118898     10.10727974433388
  H   23.66362099697051     12.59962778289152      8.45377910870979
  H   20.99202621743343     12.54453500204414      9.44728852383924
