39
Coordinates from ORCA-job COKKIX-CH3OH_0_2_tpss_d4_lanl2dz_631gpol_Fe3.opt
  Fe  20.43530242319804     12.49096995363765      7.08481668966194
  N   19.92698455993393     10.62213324916834      7.50429092531353
  N   21.98176625467927     11.55837045511094      6.27599642931340
  N   18.90660501639321     12.19682306350842      4.47855668114247
  N   21.59605841605813     15.24512341262393      6.45666788654454
  N   18.15081554709587     13.68741320028420      8.71524030105338
  C   18.97954005742523     13.28415486103631      7.97491881876596
  C   21.04933223793543     14.22048568472466      6.67759938293284
  C   19.47412303329538     12.36772827386776      5.49966974967417
  O   21.38282497902520     12.60805416942785      8.96609773403633
  C   18.80555164467328     10.24982003909009      8.15617822460388
  H   18.15380776683782     11.06301571650818      8.46470119005632
  C   18.51120537363081      8.91327468767012      8.41298989604891
  H   17.59458912532147      8.66406229547424      8.94352319424888
  C   19.39154912696925      7.90312811044337      7.98472454456592
  C   19.09078316932371      6.44468246698887      8.23230702164284
  H   19.95107471922576      5.80995278584953      7.98994157210833
  H   18.24192626414342      6.11833834575776      7.61447029660779
  H   18.81556446846599      6.27332791507732      9.28135269659563
  C   20.54892025021410      8.30541260342516      7.30546932596717
  H   21.25617592430347      7.55670431018959      6.95596426025430
  C   20.79361557453533      9.66426918917761      7.07392656486026
  C   21.95853310560356     10.19720058034674      6.35723637114537
  C   22.96694035429120      9.41678757116990      5.77923516921807
  H   22.92604380179576      8.33272201510139      5.85693947428229
  C   24.02261257137246     10.02433757878923      5.08702874426769
  C   25.10395843563782      9.20623804055161      4.42375677554270
  H   25.08847971227470      8.16532022353865      4.76732694988306
  H   26.09741043409297      9.62709754307770      4.62614420187757
  H   24.96538538428479      9.20529792658546      3.33280264561949
  C   24.01840181581629     11.42914408995324      5.01086966771266
  H   24.80664659984577     11.96049717660786      4.48152427964860
  C   22.99201723250053     12.15694586768749      5.60662026592414
  H   22.94179454997843     13.24210579723033      5.56408410855033
  C   22.74484219348596     13.11348456739116      9.06764072165248
  H   22.84273875396265     14.05937709678737      8.52387408374565
  H   22.99581749951163     13.23154809787668     10.12811852242685
  H   23.38017516373665     12.34764545068919      8.61769446425733
  H   20.77019645912382     13.26447558757373      9.37139016824664
