39
Coordinates from ORCA-job COKKIX-CH3OH_0_6_tpss_d4_lanl2dz_631gpol_Fe3.opt
  Fe  20.23244282382279     12.74147485169276      6.88789403334576
  N   19.87378117051846     10.62697775924432      7.49274725235467
  N   21.93073343415672     11.56276532411137      6.12089583357655
  N   18.51332281410746     12.04091224420172      4.28869922284801
  N   21.88356524877576     15.44509291559623      6.31710030234533
  N   18.44836325789640     13.55592103519714      9.45518962909555
  C   19.01426157819003     13.31154240273585      8.44672706293114
  C   21.25428630686479     14.46594151552787      6.52226185086920
  C   19.12849632696478     12.35356173647523      5.24855960456721
  O   21.62331202333937     12.42243012471113      8.83175705459671
  C   18.76080784508188     10.23096219741773      8.13674993883116
  H   18.10055245893107     11.02861467004655      8.46715033734071
  C   18.47396094659591      8.88759136741411      8.37469576806430
  H   17.55950155919416      8.62069931954229      8.90055904864001
  C   19.36543143340005      7.89783469617872      7.92808818943227
  C   19.07834315829898      6.43064456716852      8.13785752193175
  H   19.95320158936608      5.81208250584391      7.90598906546402
  H   18.25177594946478      6.10733243245844      7.48881943937537
  H   18.77547169759906      6.23353716473776      9.17448689183428
  C   20.52079035656567      8.32720361939488      7.26055991868881
  H   21.22925368377195      7.58872108975116      6.89319972297668
  C   20.75120694972424      9.69441375187542      7.05335428222035
  C   21.92625294066280     10.22327285923705      6.32838359426894
  C   22.97168601047012      9.41515296987255      5.86000949189951
  H   22.96089225546624      8.34397980412416      6.04569730170369
  C   24.04152775685462      9.97813947229792      5.15115851374334
  C   25.16980932459658      9.12627093476680      4.62192425191618
  H   25.11821449652975      8.10297058527241      5.01150333843147
  H   26.14440722999420      9.55396553582043      4.89185184075201
  H   25.12863260565969      9.07596661014408      3.52439327930552
  C   24.01375428928947     11.36694618120347      4.94010489106168
  H   24.81242656052209     11.86608839809260      4.39507161429051
  C   22.95003580020538     12.11841327479579      5.43702183537627
  H   22.89287724506257     13.19589298951088      5.30463558166107
  C   22.75675673901470     13.29457891089239      9.05918014856932
  H   22.47536415775255     14.34890689164295      8.96375877456847
  H   23.18196482145440     13.09146850331258     10.05134444618806
  H   23.48967708540046     13.04569784205920      8.28768724846336
  H   20.90296806843197     12.69350094563056      9.44462187647000
