52
Coordinates from ORCA-job BEZZEN_1_3_tpss_d4_lanl2dz_631gpol_Mn3.opt
  Mn  5.47901707618954      0.85541504361997     18.93021318293543
  O   5.11003124624125      0.60446141799261     20.70454748161988
  N   5.94988411165062      0.70000777123389     17.05514556171465
  O   7.03088587155617      1.76564413050318     19.24598448012846
  C   3.14608353983867     -0.80243691461541     20.65885881063950
  N   4.44172604867900      2.47756605633007     18.80606405466172
  N   4.03628499482526     -0.34617869459287     18.43631023769427
  C   4.11030191102113      0.00997056360412     21.32874095214930
  O   4.94567972009299      1.01900791727418     23.27800012190853
  O   8.66183833779367      3.48437953206757     20.37053013958162
  C   3.17892261332983     -0.94346995629924     19.23962023630784
  H   2.42229354089715     -1.59139138222679     18.78582216672836
  C   4.01292879558353      0.17874180114434     22.74708710165655
  N   3.51089085105201      4.33826242082782     19.49385475242167
  H   3.18661279558523      5.07268121848184     20.11537141568240
  C   4.18071335227111      3.22753381850862     19.88267999907021
  H   4.46737577496331      2.98361429413900     20.89580664051860
  C   8.69152246336855      3.42887586494447     19.01183294998238
  C   3.01345354683083     -0.48704558348782     23.45514868614779
  H   2.93689251401957     -0.37085215268625     24.53301968602247
  C   2.13833167086415     -1.46918719785352     21.40994590713902
  H   1.41514961096949     -2.09402308677681     20.88865071623493
  C   6.86477096198021      1.39563022029940     16.40992229940905
  H   6.99381248937050      1.20226170840747     15.34004213858464
  C   5.23782595256165     -0.38256979877277     16.34378782915223
  H   5.79248931586300     -1.31939712768199     16.49194910711917
  H   5.18074600395342     -0.17514216299454     15.26660049137591
  C   3.34290350940701      4.30554567024103     18.11884548082170
  H   2.83662165927730      5.09433972798802     17.58158195650389
  C   7.72040471543253      2.36640932296403     17.01044630210270
  C   3.85377351792189     -0.48833232066922     16.97896759460315
  H   3.21074051390657      0.33450718237859     16.63314867874005
  H   3.36542403252480     -1.43983363452007     16.73072316633919
  C   7.76868011759731      2.49796588361228     18.43348053665406
  C   4.94691441040116      1.16901936834240     24.70680713834802
  H   4.00371236119624      1.61244564875475     25.05749988458249
  H   5.77904806688280      1.84195701901509     24.92416355131477
  H   5.10923110777551      0.20074351079294     25.19981284037653
  C   3.93021485070263      3.13843232727314     17.69998002956115
  H   4.03975962344375      2.73917415527420     16.70313543342363
  C   9.51744961646324      4.18786507659790     18.18269906662273
  H   10.21429351225230      4.90182276432604     18.61354300225990
  C   8.58506037073014      3.14664930630316     16.19371032037585
  H   8.54605099902946      3.02571594335696     15.11241456561428
  C   2.08269767421706     -1.31517578119301     22.78372194283628
  H   1.31505747159154     -1.82328371864295     23.36242088438560
  C   9.46201307700381      4.04403736592597     16.77627935980942
  H   10.12233218201471      4.64674796040149     16.15719013075555
  C   9.61373012681388      4.35098766373508     21.00659765807921
  H   10.64122119583575      4.06272009155700     20.74438978186936
  H   9.45142685213355      4.21816176174624     22.07825936986629
  H   9.43847332409302      5.40021798304832     20.72784417756644
