77
Coordinates from ORCA-job BAZZAG-OH_1_5_tpss_d4_lanl2dz_631gpol_Fe3.opt
  Fe  1.96372743416614     13.13307039557293     10.05353755190801
  O   1.12526080835398     14.25022254513589      8.77783606995952
  O   0.43695089138427     11.95890963734326     10.09043192770565
  N   2.76000491532502     12.17948276101439      8.52316615972855
  N   3.99463068968262     13.88580489029781     10.19100773089412
  H   3.91361222291729     14.90188242354912     10.10065385994603
  N   2.90199285315917     11.63966442280244     11.24500524041564
  O   1.60140823102185     14.18229721320871     11.45505758758485
  C   0.41945028056765     13.70338636693833      7.80580307076019
  C   -0.73329437844645     14.41249891585940      7.35080712836333
  C   -1.52094445741273     13.83669652518394      6.35808269669049
  H   -2.41765204498244     14.36842135581353      6.03671564458919
  C   -1.22369807196743     12.58406332986011      5.76338853708624
  C   -0.06953413376473     11.92330378825443      6.17347466601684
  H   0.18589826999251     10.96146742912972      5.73389876884628
  C   0.77630311791149     12.46076587949907      7.17627522325132
  C   2.06368220849957     11.86063299351187      7.44508526538914
  C   2.63592866271696     10.88754521035256      6.47722091511068
  C   3.00131351088794      9.60846602165237      6.94353430373657
  H   2.83721433391241      9.35502827127421      7.99012067300571
  C   3.52108589486241      8.66360430277328      6.05423884816601
  H   3.78166379443392      7.66903392273001      6.41169173658634
  C   3.69998346087023      8.99548263419721      4.70321793790608
  H   4.11211095048560      8.26151344836110      4.01341422014827
  C   3.34163782552797     10.26857513874351      4.23751123422212
  H   3.48011475872530     10.52527938925273      3.18917742917027
  C   2.79860683643521     11.21136210882931      5.11693443757876
  H   2.51121505619797     12.19859488630222      4.76009395396561
  C   4.21859741624400     11.98850137681026      8.61092949046449
  H   4.63739264314245     11.70704625183363      7.63837108640433
  H   4.44640418747801     11.18938811125040      9.32498469370279
  C   4.80666397361428     13.33246212163421      9.07256228358771
  H   5.86257642636484     13.22095409580890      9.36004439407005
  H   4.74372714675189     14.04850128391140      8.24596067431261
  C   4.41908054300567     13.55770564342797     11.57533617558189
  H   3.80441324030758     14.18175707769319     12.22957352309171
  H   5.48185711827266     13.79504094186547     11.73362150046946
  C   4.16988088689899     12.07283231281952     11.86810006264015
  H   4.99827881416119     11.45719075512359     11.48827846457930
  H   4.13539055319601     11.91927017966792     12.95424145740329
  C   2.62869759714141     10.35536109945813     11.19560339704448
  C   3.59300655824998      9.38669313233807     11.81551430217248
  C   4.54615396180734      8.73572298077277     11.01082547742801
  H   4.54508996441552      8.89568543863625      9.93258613344523
  C   5.48263836445951      7.87225202643300     11.59246575698302
  H   6.21730525573069      7.36998778862695     10.96575083360480
  C   5.46708283231043      7.64988996635396     12.97587565103722
  H   6.19258018582352      6.97588922438280     13.42689010632544
  C   4.51168301105149      8.28962765709548     13.77741497622759
  H   4.49053078635662      8.10972475900807     14.85051916167026
  C   3.57797790151103      9.15970295616576     13.20191881485026
  H   2.83107773575887      9.65353429893461     13.82193569659135
  C   1.43422626958186      9.81327819576138     10.55975758453645
  C   1.27750627034138      8.40817064673380     10.47422095378261
  H   2.06810754294101      7.76672866398218     10.85630271543993
  C   0.13803220404017      7.82024827600270      9.92286074568049
  C   -0.90500824559911      8.66885296880490      9.48054315343904
  H   -1.81211318355411      8.22070120332028      9.07267315543971
  C   -0.82567392608512     10.05513696469581      9.56013502794658
  C   0.37117334527946     10.64953235463981     10.07451454388780
  C   -1.07003936821720     15.73595267893896      7.98874300383628
  H   -1.21386741522984     15.62030591533640      9.07171509572127
  H   -1.98245865330898     16.15944034272124      7.55397177517673
  H   -0.25041420449890     16.45505262229097      7.85569359311585
  C   -2.14837832976936     11.99195455804594      4.72500022089589
  H   -3.12907615450334     11.75154453373646      5.16101876648572
  H   -1.73275350251044     11.07086780393165      4.29940870122256
  H   -2.32566395784134     12.69927508819400      3.90291656942810
  C   -1.95941216599761     10.95466584377884      9.14208181893147
  H   -2.35977996424712     11.49809524292476     10.00992888613547
  H   -2.77252069029905     10.37266048869119      8.69318074769884
  H   -1.62346737976948     11.71134237634512      8.42352892628857
  C   0.00158373810675      6.31907296178048      9.82137539980028
  H   0.87819007467336      5.80961092174834     10.23853442706836
  H   -0.11201099614107      6.00195527967944      8.77445463151935
  H   -0.88759725064440      5.96557814082729     10.36245438801994
  H   0.73153491773452     13.92004823959042     11.82729823608151
