76
Coordinates from ORCA-job BAZZAG-oxo_1_4_tpss_d4_lanl2dz_631gpol_Fe3.opt
  Fe  2.02396221231528     12.94316046377122     10.09623266398853
  O   1.26412444222879     14.11713169141071      8.83164403166342
  O   0.45148180531705     11.95685398708030     10.04767518236014
  N   2.77218695109521     11.96242238460104      8.50192892845877
  N   3.86065597463432     13.79457935296191     10.08852511915517
  H   3.70377814885266     14.79363093313097      9.92736077551721
  N   2.91678474237810     11.64279871001134     11.20609112471825
  O   1.59045880636079     13.91685209159104     11.36410245900407
  C   0.51777585796533     13.61017014772658      7.87490777383387
  C   -0.63402263481649     14.36888743096379      7.48269961708363
  C   -1.47578090951190     13.84958261886279      6.50374248227285
  H   -2.36949356650155     14.41425881537851      6.23519511004120
  C   -1.23380602533040     12.61050661109576      5.86039581533056
  C   -0.08138361951089     11.90054531261687      6.20879026561915
  H   0.13063124888360     10.95047692286236      5.72223206183064
  C   0.81058499674417     12.37406387859677      7.19391110031902
  C   2.09654391566704     11.72918440327150      7.39752635427673
  C   2.65054027737138     10.83629989601786      6.34886989432514
  C   3.09004560816741      9.55015772835526      6.72535334405862
  H   2.99099991436953      9.23923735922202      7.76478809264718
  C   3.59545252618378      8.67294843427326      5.76200424530260
  H   3.91389965392977      7.67323532698865      6.05167249289968
  C   3.68384260659657      9.07899162143857      4.42232162879253
  H   4.08309438376198      8.39750455522739      3.67355849430776
  C   3.25185863567579     10.35827300714666      4.04366618326860
  H   3.32176494599275     10.67218661488418      3.00409034266047
  C   2.72443525070297     11.23260867330357      4.99943347336274
  H   2.38111969841052     12.22434067943777      4.71083354210536
  C   4.22859075435387     11.83217320505433      8.58851735466826
  H   4.68033957183682     11.53502685183082      7.63478383044010
  H   4.50191168849773     11.08859702092256      9.34627438109230
  C   4.71797097833783     13.23728331956922      8.98947083462448
  H   5.77177834021425     13.22760054868382      9.29911018193022
  H   4.60612987500667     13.90782803910395      8.13128047931274
  C   4.35896695439074     13.60387385215243     11.48465004579623
  H   3.77362864823081     14.28761846425942     12.10396702009843
  H   5.42520647202985     13.86018132754871     11.55471707360546
  C   4.11394159352712     12.15155370556124     11.91455439911959
  H   4.97032555394965     11.50681751836831     11.67441597675258
  H   3.96570221963611     12.10415875969662     13.00003207924895
  C   2.65709975821475     10.35353565904436     11.17197831850467
  C   3.57385586108512      9.42228292426170     11.90243606130550
  C   4.57320056039322      8.72196229019373     11.20209258403969
  H   4.65310819713988      8.82622991494715     10.12022447430509
  C   5.45340079967344      7.88182756650264     11.89525313484175
  H   6.22482152706623      7.34061481162898     11.35064054677926
  C   5.33619725491744      7.73462513644859     13.28381597407176
  H   6.01907990469295      7.07909841308906     13.82042925625291
  C   4.33584890305195      8.42640820737759     13.98070045256979
  H   4.23721665723676      8.30589134516895     15.05770293990653
  C   3.45660524891594      9.27227915444389     13.29478542612812
  H   2.67317006245516      9.80552220134880     13.83122777937168
  C   1.51009979830449      9.80678202508677     10.47588783149442
  C   1.36354325834671      8.39824630786482     10.37600795604233
  H   2.16535095057183      7.76218499964575     10.74352395461925
  C   0.22321221254365      7.81247381036158      9.83726282682130
  C   -0.84569082925433      8.66329486971759      9.44899675933160
  H   -1.76114715234631      8.21323230483017      9.06261131517352
  C   -0.78408077198580     10.04516601618752      9.55725973112133
  C   0.43219368245401     10.64345041546454     10.02257539313467
  C   -0.91204549959158     15.67191684231690      8.18424678550922
  H   -0.97604912898633     15.51795592583515      9.26974222755575
  H   -1.84775518548556     16.11624369817914      7.82713250482276
  H   -0.09603150175227     16.38848138537010      8.01673836955674
  C   -2.20720116302967     12.07482522112701      4.83807856616310
  H   -3.17313277426898     11.83283023258492      5.30580394119452
  H   -1.82465455098895     11.16491734491614      4.36109827034417
  H   -2.40737470095917     12.81801662852211      4.05382171696499
  C   -1.94194217135431     10.94419411701166      9.20841466600794
  H   -2.29638450361893     11.47439235818259     10.10368680693411
  H   -2.77348789330920     10.36305812256191      8.79360329111484
  H   -1.64458985682712     11.71197878374516      8.48526225024379
  C   0.09561701479776      6.31375963069909      9.69973011561144
  H   0.97601771910955      5.79992288302633     10.10320734846585
  H   -0.01665498378165      6.02184621703698      8.64517779975983
  H   -0.79104520137588      5.94194997028937     10.23241636804158
