81
Coordinates from ORCA-job BAZZAG-CH3OH_1_6_tpss_d4_lanl2dz_631gpol_Fe3.opt
  Fe  2.17927541783420     12.48828955469260      9.61514218109371
  O   1.27793287912981     13.89117255106863      8.60243369184327
  O   0.67302465050483     11.36534809562051      9.70315087494470
  N   3.04172326361299     11.90095698754797      7.84182763444882
  N   4.18920215434386     13.37493623832267      9.82592822262641
  H   4.05935179087276     14.38897457075472      9.79830801477856
  N   3.08854899008153     11.12598009105062     11.00523913211302
  O   1.60745140268423     13.95217768303113     11.18340587505459
  C   0.54619280163427     13.44104870862792      7.58478176372491
  C   -0.75748004367652     13.99044784339083      7.40910658935412
  C   -1.56096091367040     13.52334207664003      6.37321900571639
  H   -2.56505459085168     13.93679906446372      6.26579060288149
  C   -1.13071333964059     12.52816979031418      5.46382046543523
  C   0.15976304729758     12.02554012582149      5.61332426810275
  H   0.51590864147499     11.26219364301812      4.92388270337564
  C   1.02122971990958     12.45067244652946      6.65509543218864
  C   2.38536466568447     11.92200082937562      6.70302098472047
  C   3.00335468368924     11.43583958056742      5.43908771770037
  C   3.60535935565589     10.16289072013857      5.38384979515617
  H   3.59101044735984      9.52368450069467      6.26603347151080
  C   4.18034797702954      9.70721848001071      4.19337778403912
  H   4.62632178279791      8.71521966702007      4.15250840121785
  C   4.17528048808118     10.52448464583127      3.05402748284850
  H   4.62752398346959     10.17059628645984      2.12951873761403
  C   3.58056612769487     11.79333942838801      3.10270993382641
  H   3.57461209552158     12.42800751784875      2.21868069438851
  C   2.98553944926893     12.24416701888123      4.28483722813010
  H   2.51128731821247     13.22306433222176      4.32512277367726
  C   4.48329885803237     11.69977956716057      7.97725537317678
  H   4.98904537207550     11.55657068594256      7.01413954957064
  H   4.65343013627045     10.80648155886818      8.59368903805340
  C   5.04625644921190     12.95880217073446      8.67480215543891
  H   6.08266432076849     12.78929439025897      9.00140086582180
  H   5.04238768367718     13.78290725531410      7.95331923352638
  C   4.66375606139639     12.99586971086991     11.18111682353003
  H   4.05589696124326     13.57038033675705     11.88905230787377
  H   5.72266531786674     13.25994664086553     11.32729090877342
  C   4.45981201102710     11.49906564684934     11.41495395500194
  H   5.18897402842498     10.91624614612632     10.83177833172732
  H   4.64454711630387     11.26318599982467     12.47083493457341
  C   2.62571975235038      9.94563598611199     11.37698023649273
  C   3.50414286011239      9.05464934274088     12.20677063906257
  C   4.45889269264937      8.23665667458309     11.57822439462187
  H   4.52247970806748      8.22006274604205     10.49058027725487
  C   5.30863233127159      7.43302989794913     12.34750070032833
  H   6.03988509110838      6.79405836826485     11.85574298571748
  C   5.21336144798825      7.44623570882823     13.74563363886456
  H   5.87467958648360      6.82117927739991     14.34242790286774
  C   4.26046284319347      8.25884620279474     14.37445998787207
  H   4.17811399040799      8.26504625470317     15.45971996760367
  C   3.40464199771152      9.06086222298566     13.60918770539752
  H   2.65532102625868      9.68465855053209     14.09478313799341
  C   1.31592986976052      9.43426990534752     11.00171376321275
  C   0.92520236129553      8.14649412407696     11.45475055833071
  H   1.60673748411698      7.58619226666412     12.09031364693064
  C   -0.29730706355998      7.57592904323515     11.10683568529436
  C   -1.16154652567317      8.31233232639742     10.26176233809197
  H   -2.11646470490932      7.87199595914659      9.97098205904535
  C   -0.83816896741897      9.57855432107933      9.78225194545026
  C   0.40782161048334     10.15917131423818     10.16188195676763
  C   -1.23877765097649     15.03539220944125      8.38507175291566
  H   -1.31019734368336     14.61944595892787      9.40201394528138
  H   -2.22911979100543     15.41028935127927      8.10241445367698
  H   -0.54416867376598     15.88563069996396      8.43060889425862
  C   -2.04864678125289     12.03491920373239      4.36831277617761
  H   -2.96211272110671     11.58757188383122      4.78605763209869
  H   -1.55431991559040     11.27784452721827      3.74798418526752
  H   -2.36358134930024     12.85922477221191      3.71256295348849
  C   -1.74737896820052     10.36179888225574      8.86837809587657
  H   -2.05057814520098     11.31093475907147      9.33210100434557
  H   -2.64957480537262      9.78712536139795      8.62869129127118
  H   -1.23335015784520     10.62372337074525      7.93362320648199
  C   -0.69576851172526      6.20535391184186     11.60550900022866
  H   0.09239630636662      5.76306433545195     12.22630501447387
  H   -0.89415593667543      5.52085654985679     10.76843949756218
  H   -1.61460078795315      6.25486629848256     12.20733185465886
  C   0.70935546565816     13.44309630289747     12.20736487696494
  H   1.30534909033925     12.75940320544172     12.81630169197944
  H   0.34704323145473     14.27460453496687     12.82253830345901
  H   -0.12539479990615     12.89756266360683     11.75236352999096
  H   1.08294629173840     14.46845813635004     10.52479757275971
