76
Coordinates from ORCA-job BAZZAG-oxo_1_2_tpss_d4_lanl2dz_631gpol_Fe3.opt
  Fe  1.99036852044661     12.89629392907493     10.10876719453430
  O   1.22547959893079     14.10038254568829      8.86515405828078
  O   0.45676939013800     11.89427000253287      9.96567820292201
  N   2.73942979358626     11.96337509112325      8.50969404101801
  N   3.81214956055226     13.79968650696564     10.08334006605798
  H   3.62666193137636     14.79842242093322      9.95226098308742
  N   2.92759053704691     11.59683337355462     11.18104449563351
  O   1.60326508364858     13.82492838103812     11.41061960830920
  C   0.50051026765326     13.62946990051590      7.87887222739499
  C   -0.61852322221241     14.42268984106612      7.45760306251266
  C   -1.43183248126051     13.94085596356804      6.44094613470219
  H   -2.30499892861053     14.52818599505493      6.15333285694469
  C   -1.19368186910230     12.70653278139475      5.77652025268891
  C   -0.07456226378592     11.96651425244830      6.14743929380498
  H   0.13586301558868     11.02203567555476      5.64944597430864
  C   0.79459712257608     12.40054936372045      7.17762248352225
  C   2.06353667829339     11.74688773030696      7.39305596694683
  C   2.62993715356681     10.85201617996186      6.35192751280413
  C   3.05235503939984      9.56183257991525      6.73468015533436
  H   2.92916477860110      9.24973243830502      7.77134343523410
  C   3.57703327936719      8.68478912983176      5.78159914116167
  H   3.88311376140258      7.68254592635336      6.07598037460785
  C   3.70142417162521      9.09438631113835      4.44582568144033
  H   4.11572676888044      8.41311240111017      3.70507288223043
  C   3.28717390942526     10.37760767745742      4.06113689038526
  H   3.38573296314486     10.69493407337087      3.02488938329963
  C   2.74216350326461     11.25261853429352      5.00658922935714
  H   2.41483505868235     12.24834804490085      4.71315629495803
  C   4.20044017278511     11.86875468216519      8.56456524170659
  H   4.63850997819822     11.58423847428465      7.60108844038877
  H   4.50974412302321     11.13331215066023      9.31581022850971
  C   4.65487002809352     13.28798365627577      8.95609146431862
  H   5.71770416506111     13.31376085705962      9.23246235559090
  H   4.49122331891271     13.95780875660046      8.10573506529292
  C   4.34886816493216     13.57757669111455     11.46018007337976
  H   3.76407664841038     14.22748666750442     12.11567281464810
  H   5.41064406712703     13.85537707426835     11.51365339989484
  C   4.14813801421536     12.10759849163999     11.84887312418377
  H   5.00531315983419     11.48901110208843     11.55013100045571
  H   4.05033815598040     12.01894780493177     12.93758190380047
  C   2.65228994460035     10.31278731139174     11.19171046756054
  C   3.58468754467644      9.39149840502276     11.91524385720315
  C   4.58054393117676      8.69810968194822     11.20348720965531
  H   4.64310584159455      8.79892139527553     10.12012814739010
  C   5.47795779144167      7.86894802730909     11.88760683472558
  H   6.24651465508775      7.33219168277073     11.33460011966159
  C   5.38140664216251      7.72662840171305     13.27839530020964
  H   6.07776688237406      7.07971477912185     13.80812698552332
  C   4.38426821049967      8.41154450249013     13.98646395045493
  H   4.30168907051028      8.29439677335161     15.06521259796994
  C   3.48717182223294      9.24605401938475     13.30947941467368
  H   2.70606059362261      9.77389007432083     13.85468260656949
  C   1.48099885509913      9.75643231116991     10.54048391412542
  C   1.31898073905561      8.34838956695748     10.50630511631686
  H   2.10968910383884      7.72166020060810     10.91178872852844
  C   0.17624543841271      7.74756818841281      9.98373819437539
  C   -0.87088746021406      8.58778660645001      9.52736375352739
  H   -1.78558658752730      8.12997513524013      9.14866292916091
  C   -0.78656539411726      9.97362461019547      9.55327367918493
  C   0.42285504712459     10.58140381398077     10.02452596794484
  C   -0.89531333869636     15.71639906925131      8.17792033141042
  H   -1.02174278340311     15.53919206015952      9.25451232265131
  H   -1.79850791623944     16.19651978514829      7.78492934349415
  H   -0.05207708978951     16.41281781257054      8.07106312647277
  C   -2.14391059381132     12.21922856826156      4.70912322560422
  H   -3.13887474964659     12.01560025460275      5.13189108347162
  H   -1.77879861515152     11.29715579524190      4.24185671026911
  H   -2.27802178570220     12.97474815350676      3.92217178504947
  C   -1.92518696395913     10.86243753726119      9.12500956395162
  H   -2.31968408137259     11.41966447860008      9.98650918293317
  H   -2.73850191199718     10.26899822855908      8.69196366970990
  H   -1.59483748357761     11.60784509943049      8.39279958879146
  C   0.03139654109615      6.24525464032305      9.93003878169876
  H   0.91177469412232      5.74397854496770     10.34886704265056
  H   -0.10014167378130      5.89829559820112      8.89477560429758
  H   -0.85151803854180      5.91364542702549     10.49474586712885
