75
Coordinates from ORCA-job BAZZAG_1_2_tpss_d4_lanl2dz_631gpol_Fe3.opt
  Fe  2.16680310495233     12.65424628089865      9.78535282824797
  O   1.31197305718456     13.95667360418345      8.81020501446608
  O   0.58168712144316     11.77171664233514      9.88368223085598
  N   2.88075830552167     11.90830885978079      8.25596298542997
  N   3.88376157536944     13.69304093986583      9.93006479300396
  H   3.70992255616194     14.69357569940673      9.79211219044057
  N   3.02612664330135     11.45693807144707     10.99347778052044
  C   0.54121259497145     13.54701401556254      7.81410720352983
  C   -0.64214743247708     14.28464913461604      7.52358981617263
  C   -1.46871168234213     13.84056228506789      6.49735273457815
  H   -2.39383415409739     14.38674628513260      6.30670091481584
  C   -1.17910750359692     12.69691562232709      5.70627137271572
  C   0.00338413343645     12.01404471194939      5.95712241287366
  H   0.25555484875152     11.13665339883952      5.36474601132536
  C   0.88928492742525     12.41519642320462      6.99303213603063
  C   2.18356718628541     11.79377206737712      7.12835856774476
  C   2.77403097744667     11.03606402165089      5.99792023856498
  C   3.29244100165709      9.74466517227773      6.22653052374790
  H   3.22918623280066      9.31315475149226      7.22506562284043
  C   3.84213285220991      9.01301250434390      5.17016649901029
  H   4.22215616767004      8.00860268584113      5.34659981463619
  C   3.89418525319690      9.56960065107128      3.88376647427896
  H   4.32598104150126      9.00045179055879      3.06282151274346
  C   3.38442023813411     10.85516096275098      3.65190576222324
  H   3.42630704904027     11.28748691100273      2.65417165369510
  C   2.81705905028841     11.58523627826812      4.70081924286079
  H   2.41639847502068     12.58200257749294      4.52686847838906
  C   4.34676586837653     11.82510887597204      8.33792912771288
  H   4.79527693517305     11.60789678801736      7.36216165633874
  H   4.62667088261884     11.03000332101169      9.03828320383548
  C   4.80468236982491     13.21082864229291      8.83990561840894
  H   5.84518042160843     13.19174775559351      9.19219194187379
  H   4.72502586008987     13.92842603615068      8.01671429391788
  C   4.35589945024460     13.46245186907916     11.32759634447940
  H   3.67540655746418     14.02271860185420     11.98083448863243
  H   5.37803308816204     13.84035759867578     11.47613234127626
  C   4.27155290134011     11.96632582885369     11.61946287484523
  H   5.14310555641050     11.44224709160242     11.20351374252274
  H   4.27460371588126     11.78037810270369     12.70060420343688
  C   2.65736995879735     10.20016946653161     11.22382775837847
  C   3.52357536425529      9.33699878835578     12.08549317107487
  C   4.72075557603253      8.80707494070931     11.57117238239499
  H   4.99622116352332      9.00189628195946     10.53428941453849
  C   5.54022319353615      8.00926066149037     12.37752834141001
  H   6.45915615367324      7.59157013388265     11.97027164220469
  C   5.17398222668313      7.74536713928217     13.70459160160891
  H   5.81355569836100      7.12817622682482     14.33250989799874
  C   3.98011453457713      8.26848474068034     14.21959476588034
  H   3.68986255285129      8.05798667318146     15.24712209236473
  C   3.15076119704362      9.05610876761349     13.41196783742178
  H   2.21460149413807      9.45148331703603     13.80265323347381
  C   1.43654991077196      9.64778291894646     10.69652595715874
  C   1.16575882022052      8.25958577737842     10.86530171646755
  H   1.93335486662428      7.62818231658185     11.30721589221856
  C   -0.04218337530696      7.69840476833090     10.47923504109113
  C   -1.03242510799392      8.55334736140876      9.92512791654880
  H   -1.99015164312573      8.12246049010502      9.62935980354369
  C   -0.83264861359909      9.91413970913693      9.73527922231858
  C   0.43033309186240     10.47559600371702     10.09453767901587
  C   -0.98162164510638     15.48068202876664      8.37728580109986
  H   -1.08040607750750     15.18893962903243      9.43217157343181
  H   -1.92162632497234     15.93905240089363      8.04980688640721
  H   -0.18749811255094     16.23858866541957      8.32940362024884
  C   -2.14240374544239     12.24555448232681      4.63214546255821
  H   -3.12281338957720     11.99233931307510      5.06056593977016
  H   -1.76366508898494     11.36076768795132      4.10687250721222
  H   -2.30968457923275     13.03831108618835      3.88912668402775
  C   -1.88793565859905     10.81459101797014      9.14301696683912
  H   -2.10092052191259     11.66030093276251      9.81044112301737
  H   -2.81725822988339     10.25927125151782      8.97057304540607
  H   -1.55108775388095     11.24141547668327      8.18918862532083
  C   -0.31741277806007      6.22133105040073     10.64624556682702
  H   0.53852876013577      5.70604060394400     11.09800663807172
  H   -0.53007038863711      5.74519652291341      9.67820670375348
  H   -1.19392875716527      6.05265850644766     11.28803283587169
