76
Coordinates from ORCA-job BERJUG_1_2_tpss_d4_lanl2dz_631gpol_Mn2.opt
  C   2.02038237744336      3.43309381237976      0.91797476757932
  C   2.30617343640548      4.10617700738396     -3.39206146574364
  H   1.53263162688680      3.35853750468020     -3.23663897460156
  C   2.66622763290056      4.53658198760333     -4.66706143547494
  H   2.17759366376789      4.13271833738145     -5.55015130331952
  C   3.66976988895666      5.50676963026295     -4.82982522459957
  H   3.96474718268276      5.86089085236692     -5.81259744226519
  C   6.49752737891364      7.65856105947632     -0.94036046656648
  H   7.27823830147100      8.31567306264090     -1.31322232128258
  C   6.34833089593540      7.38168359911362      0.42855591653330
  H   7.01574838224635      7.86021272097934      1.14037168604873
  C   5.36914801323759      6.48989416516424      0.86103863619822
  H   5.26202059932193      6.26920813817319      1.92123389450243
  C   3.50553196903057      4.90251648986371      0.12545979218638
  C   2.74758604661819      4.31332098135996     -0.90523241010804
  C   2.97577920411588      4.65617913796464     -2.28055771737542
  C   3.98319509311340      5.62379957441613     -2.52087450479178
  C   4.73886676594237      6.21234020804366     -1.46191774596704
  C   4.53725593213138      5.86506340703120     -0.09526178839768
  C   1.26622706651623      2.62352848743050      1.86907197315834
  C   1.48687329016529      2.69417044932214      3.26037299462104
  H   2.23630543193049      3.36654025389433      3.67749391678022
  C   0.73950750793607      1.89750150029769      4.12730214818678
  H   0.91003377162899      1.95134410116052      5.20233798371893
  C   -0.23629364974167      1.02194882052636      3.62015243451902
  C   -0.45864770471817      0.95017714292521      2.23039431800391
  H   -1.21913692850206      0.26426800622367      1.86302290536531
  C   0.28357062023563      1.74122464283622      1.36197182810818
  H   0.12809710390279      1.70002556403400      0.28700603074828
  Cl  7.82297328871105      6.52820399289490     -3.84350685289179
  Mn  5.74042268984098      7.39843312988711     -3.81194633898824
  N   3.02163598224339      4.32472835632732      1.27950224181323
  H   3.35037366634869      4.49979346298093      2.22263438188424
  N   1.84178576083098      3.41658150798998     -0.40569369980361
  N   4.32252593003549      6.04553742159095     -3.78145085452929
  N   5.69511436528340      7.10168929998062     -1.86896888729963
  C   -1.03340848674210      0.17318906879204      4.54332618746666
  H   -0.79102098649286      0.29348212923934      5.62397665875977
  O   -1.89792080023565     -0.60940015322460      4.16932692850275
  C   2.03482978588389     11.50340612532580     -8.46483824641023
  C   2.30573314734754     10.73208928255062     -4.17794162186806
  H   1.52722456486547     11.47600006121710     -4.32640431863816
  C   2.65482556412617     10.27550740910733     -2.90997378923216
  H   2.15279148768914     10.65264015197177     -2.02273514239748
  C   3.66223187095410      9.30780463895586     -2.76269400716733
  H   3.94399264552255      8.92845546958874     -1.78532374595287
  C   6.51154966218423      7.23413802565841     -6.71365397400381
  H   7.27133284006475      6.54300561680830     -6.35957428261189
  C   6.35673731575489      7.55130682880412     -8.07351443990055
  H   7.01048146463569      7.07722129763865     -8.80097094918439
  C   5.38467057160076      8.46136502484079     -8.47735145978124
  H   5.26714179437598      8.70765140340466     -9.53084340394823
  C   3.52669231959804     10.02577776709843     -7.70098049870213
  C   2.76414965618747     10.58789007060273     -6.66049361944455
  C   2.99066978342647     10.21186098472864     -5.29492252430111
  C   4.00419403370170      9.24517965112921     -5.06973644928275
  C   4.76993533256465      8.68505921309266     -6.14067488169996
  C   4.56123250079680      9.06260483485337     -7.49875483856468
  C   1.27948007656432     12.32959898197494     -9.40059161318256
  C   1.48440914621097     12.26810188186028    -10.79481810357363
  H   2.21863201010788     11.58762507839327    -11.22573315414689
  C   0.73782492961603     13.08128279333622    -11.64696150748967
  H   0.89579748392879     13.03359056425170    -12.72424841880680
  C   -0.22165483438004     13.96429105317516    -11.12192602694830
  C   -0.42923460407000     14.02601721167177     -9.72937587397157
  H   -1.17777632207749     14.71766353204472     -9.34847130502373
  C   0.31209019511603     13.21830942715327     -8.87564812256996
  H   0.16771711164984     13.25222430012774     -7.79879455664273
  N   3.04199521104720     10.62498589932657     -8.84357816332543
  H   3.37333127708432     10.47161546365365     -9.78969659987842
  N   1.85404784341974     11.49104698123564     -7.14162135411830
  N   4.33224306457508      8.79486787205382     -3.81462454083615
  N   5.73048690469857      7.78145099348417     -5.75825760931744
  C   -1.01738276234857     14.83161076569939    -12.02903355362638
  H   -0.78863478632763     14.71777270431889    -13.11318126768363
  O   -1.86736059639390     15.62179177746576    -11.63855422644540
