78
Coordinates from ORCA-job BERJUG-OH_1_5_tpss_d4_lanl2dz_631gpol_Mn2.opt
  C   2.03566320132315      3.34390082715670      1.04259469848586
  C   2.28268498341358      4.18440857592850     -3.21373622971439
  H   1.51983011667362      3.42598862062044     -3.05547480736390
  C   2.62162874519834      4.63053904571398     -4.48421286069256
  H   2.13129477688813      4.23450897384701     -5.36957742550862
  C   3.63339088866860      5.59727565330238     -4.63204524796249
  H   3.94920003461746      5.94158091452243     -5.61180670514397
  C   6.38934005100375      7.77231015997919     -0.61123771499123
  H   7.11519145614031      8.50186790641857     -0.96357626734608
  C   6.26942490734548      7.40147890640718      0.74315170869819
  H   6.91693770560221      7.85936829568841      1.48632208810390
  C   5.32163209733906      6.45483525234989      1.11127077445204
  H   5.21775660995547      6.16584493469067      2.15566481589270
  C   3.49515190716205      4.86832913458573      0.31045195206654
  C   2.73944967161688      4.31915480188269     -0.73993469890273
  C   2.96136487951913      4.72077956583939     -2.09872507902634
  C   3.95483382290392      5.70966687780520     -2.32414169195081
  C   4.69859660778286      6.28380362328614     -1.22716513417419
  C   4.50260196383676      5.86017426673335      0.12048545454671
  C   1.30108624822883      2.47888715398441      1.95949037926539
  C   1.48859938656600      2.53020757780742      3.35653874077059
  H   2.18954830499658      3.23462311697856      3.80410420908418
  C   0.76405266212867      1.67864645472212      4.19006138370243
  H   0.90821928573562      1.71860899744063      5.26961283081213
  C   -0.15642645343750      0.76763611388221      3.64350767759301
  C   -0.34729395356457      0.71675844704157      2.24813397430487
  H   -1.06542054469112      0.00290842205457      1.84995179430865
  C   0.37260698559068      1.56220614354583      1.41283790792040
  H   0.24135640307534      1.53646669549377      0.33408948506659
  Cl  7.24550952218480      5.58575679198510     -3.94814688685206
  Mn  5.88241088888934      7.45812179110031     -3.69900338876787
  N   3.02732328418076      4.23168551422623      1.43999512490815
  H   3.37034984206539      4.35526520765900      2.38621708568927
  N   1.84801295078034      3.38731652701173     -0.27909425339527
  N   4.27860458779611      6.12733112109466     -3.58523739458027
  N   5.61213551666390      7.23328941653578     -1.55583058743058
  C   -0.92961088092798     -0.13952664446115      4.53074417343357
  H   -0.71478782096737     -0.03312387054957      5.61856024930754
  O   -1.74841341957532     -0.95276322810557      4.12139872957401
  C   2.04438365556962     11.59156664287818     -8.60115670978949
  C   2.37031278271554     10.94965824592710     -4.31542842671150
  H   1.61097929604817     11.70672711662237     -4.49633478378799
  C   2.71323020051191     10.54535715687036     -3.03211394752994
  H   2.23014648521712     10.97550821410702     -2.15846375082885
  C   3.71212458482391      9.56639931985764     -2.86194998695688
  H   4.01749131687634      9.23117039532887     -1.87395348911257
  C   6.37750493029034      7.18439577234695     -6.84659678025998
  H   7.09023461423222      6.44412537291866     -6.48757472157527
  C   6.20904082230724      7.48042254457689     -8.21504761223795
  H   6.81328995509428      6.96081257062086     -8.95409400404270
  C   5.27117954770314      8.42942047251161     -8.59826363304018
  H   5.12975776447173      8.66262056231749     -9.65226899736141
  C   3.50554359568514     10.08996656250123     -7.82519141823748
  C   2.78639514831003     10.70659321498009     -6.78722088918156
  C   3.03264208546781     10.36479082406345     -5.41705914054752
  C   4.02234740937576      9.37727384158038     -5.16076971506993
  C   4.74391067181886      8.74106978538439     -6.24733468108474
  C   4.50380008308876      9.09381469378280     -7.61012388038492
  C   1.29413956704301     12.41421897534206     -9.54402717015232
  C   1.46581410454325     12.30702506819132    -10.93997460989933
  H   2.16894380402261     11.59218692877981    -11.36718909417368
  C   0.72569912330967     13.11907672669162    -11.79885562496543
  H   0.85784972857281     13.03618376550264    -12.87748419936600
  C   -0.19409384374495     14.04617455961520    -11.27883591826468
  C   -0.36837781481235     14.15359954475132     -9.88452569062958
  H   -1.08646798983821     14.87879327316806     -9.50734481454267
  C   0.36668159079178     13.34734074504540     -9.02406203123939
  H   0.24753661146533     13.41604003867014     -7.94578331562980
  O   7.17800370964455      8.67851044017141     -3.46421464530678
  N   3.01405180185413     10.66985247885146     -8.97539104241889
  H   3.31707410793281     10.47826440966812     -9.92396085774781
  N   1.89410414123924     11.62431616143856     -7.27423932880338
  N   4.34736222357489      8.99808124116335     -3.89308242135721
  N   5.65777335159040      7.79833104490598     -5.89933060406114
  C   -0.98379415738863     14.91218484419703    -12.19287499159537
  H   -0.78309276099807     14.76187889204211    -13.27808090421469
  O   -1.80169698368150     15.73704777297113    -11.80592164863024
  H   7.06758751256163      9.45573169345023     -4.05133338344354
