77
Coordinates from ORCA-job BERJUG-oxo_1_2_tpss_d4_lanl2dz_631gpol_Mn2.opt
  C   2.04740051267352      3.39363763122118      0.96161699632185
  C   2.04210569470701      4.36142302654708     -3.28969054637421
  H   1.25613363811664      3.63098535222807     -3.11389248693057
  C   2.30990517700161      4.85820608105860     -4.55952832506120
  H   1.73779973151289      4.52858290469896     -5.42299101299719
  C   3.34559239277738      5.79664085502095     -4.73370635931175
  H   3.59050238584150      6.19293441188760     -5.71560962922650
  C   6.48328626649193      7.66460382473368     -0.86857815402089
  H   7.22264471784413      8.36410541459008     -1.24853589429081
  C   6.40881375552604      7.28341850082693      0.48283681147243
  H   7.11324409426211      7.70882428552511      1.19261891097593
  C   5.44800015813707      6.36749202869182      0.89235697486430
  H   5.38960656400837      6.06515293551419      1.93623217714633
  C   3.51936252461514      4.87321684511905      0.16511165643309
  C   2.67480743455381      4.37793446960418     -0.84431742301084
  C   2.82041321008762      4.81286122121338     -2.20272425414804
  C   3.84230871684241      5.76287894899805     -2.46322075124743
  C   4.69121812337648      6.26362975046675     -1.41388993791153
  C   4.55614917015280      5.82725021728806     -0.06323021490833
  C   1.33960227148087      2.53792623734759      1.90787727391280
  C   1.59979678181220      2.57212552890972      3.29371419792202
  H   2.33666896846025      3.25870489326091      3.71025632169494
  C   0.89940321654225      1.72982103828340      4.15665679668122
  H   1.09917437575461      1.75687527489804      5.22774203547309
  C   -0.06908683425170      0.84531077705974      3.65096021973671
  C   -0.33340729890401      0.81257740113951      2.26706099900924
  H   -1.08780364489567      0.11933515270432      1.90077215824802
  C   0.36206415867325      1.64903322393140      1.40250352355142
  H   0.17473724680887      1.63690530713481      0.33180865203319
  Cl  6.98824863368056      5.64153851078275     -3.91884084663494
  Mn  5.77946082842741      7.56715229768807     -3.73304833527479
  N   3.09785478306647      4.23253939409006      1.31064191333032
  H   3.50991324803933      4.31608145714595      2.23340594778270
  N   1.77693876182795      3.47304206793721     -0.34392301077225
  N   4.09116914143078      6.23738333757705     -3.71539358459519
  N   5.63986085663254      7.17030170513638     -1.78790930065434
  C   -0.81575120359115     -0.05260264160471      4.56966431471230
  H   -0.54290030891401      0.03956761707648      5.64576910724974
  O   -1.67169556278992     -0.84486093963249      4.19678361647372
  C   2.08686346571772     11.52720502050463     -8.53680721543849
  C   2.26230525118881     10.80435755392371     -4.23579882408377
  H   1.48259392510043     11.54077306519677     -4.41411945856437
  C   2.58018437936336     10.37037313944388     -2.95455644571912
  H   2.05632435383448     10.75843242316270     -2.08498719031508
  C   3.60209065812897      9.41830246687406     -2.77193068764544
  H   3.88466962510005      9.06358669456831     -1.78554071666591
  C   6.50399637596958      7.25423031517722     -6.64559669385462
  H   7.22505788347839      6.53510631098993     -6.26668911126648
  C   6.39067005092639      7.57089279294731     -8.01383102382021
  H   7.05673754430084      7.08764453603712     -8.72352241294654
  C   5.43917995617203      8.48774621110748     -8.43948429406173
  H   5.34825729279113      8.73174262363467     -9.49634236992914
  C   3.56983187320583     10.06768892587231     -7.72217840150606
  C   2.78086356143704     10.63811563873439     -6.70600580909640
  C   2.97937424030429     10.27874115448760     -5.33228295874359
  C   3.99312573829052      9.32252259428611     -5.06811268004616
  C   4.78068614030910      8.74050255009378     -6.11936769868051
  C   4.59625820838293      9.10468394232539     -7.48431524164655
  C   1.34677961232707     12.33577779415879     -9.49958169388828
  C   1.57648727313244     12.25036378051259    -10.88863831791963
  H   2.31924699600345     11.56412949610893    -11.29520914239979
  C   0.84226787598499     13.04574507612272    -11.76782685629152
  H   1.01877326258260     12.97947614041916    -12.84124268725969
  C   -0.12916970777126     13.93417538652728    -11.27498063433891
  C   -0.36119617316902     14.01989887694792     -9.88765612718820
  H   -1.11844958754851     14.71543558916559     -9.53182650431630
  C   0.36779486091316     13.23013599595651     -9.00687531182688
  H   0.20447062231825     13.28267205572409     -7.93349422333957
  O   6.87158224785719      8.71645148118784     -3.47738661146859
  N   3.10735345998003     10.65007567723888     -8.88224735960958
  H   3.46258510210205     10.49137292644308     -9.81873171138235
  N   1.87661412235405     11.52949333710555     -7.21761500003785
  N   4.28564811874561      8.90793143036574     -3.80236450305294
  N   5.71155826935660      7.82244070466581     -5.72582898947772
  C   -0.91334410415419     14.78193430528328    -12.21101670999469
  H   -0.66585609841187     14.65014258699488    -13.28895054177740
  O   -1.77405936442416     15.57336305360333    -11.84821837805407
