82
Coordinates from ORCA-job BERJUG-CH3OH_1_2_tpss_d4_lanl2dz_631gpol_Mn2.opt
  C   2.01202258167909      3.07936479286462      1.06703068515904
  C   1.88523155498469      4.01003808450121     -3.20357838286071
  H   1.16240016308033      3.21715843765872     -3.02958558040846
  C   2.09939834966452      4.54396318261562     -4.47215553632589
  H   1.54328265350411      4.17928147957092     -5.33202874095584
  C   3.05027145360480      5.56154397081270     -4.65864320522885
  H   3.24758746645932      5.98169755750453     -5.63976773790717
  C   5.97082176367094      7.75593938244512     -0.86655960180842
  H   6.62400260362695      8.53560925071678     -1.24568952510733
  C   5.92605268452690      7.42022666224783      0.49528506599669
  H   6.56385230117164      7.95685881896838      1.19300200227029
  C   5.08265942451914      6.40445108213954      0.94071920423453
  H   5.05528993608965      6.13756027208134      1.99527530374434
  C   3.33563958865957      4.67937159905777      0.24315121090892
  C   2.54207683064177      4.08802810616733     -0.75774639024853
  C   2.63435790504914      4.51814443669738     -2.12428247827753
  C   3.57301908683421      5.54610520498643     -2.38899287130746
  C   4.36539056115009      6.13839261664529     -1.35982002976037
  C   4.26967926798406      5.73287075170031      0.00216325232147
  C   1.39046126963460      2.17303994580297      2.02676989143997
  C   1.69295324686050      2.20974330107784      3.40397061931408
  H   2.40440355357446      2.93220312771348      3.80374585886956
  C   1.07538244661076      1.31667148665027      4.27903264385538
  H   1.30945386849434      1.34460085998070      5.34318362411085
  C   0.14811194755473      0.37773971532665      3.79454144611710
  C   -0.15782094377852      0.34147794233369      2.41914137875917
  H   -0.87876887884239     -0.39443841950719      2.06900837871681
  C   0.45541150472755      1.22825577189914      1.54269287569392
  H   0.23539176771463      1.21490687685526      0.47826037349294
  Cl  6.76201644247028      5.58154295731062     -3.80220171643139
  Mn  5.25212883893828      7.33751750757583     -3.74378973889967
  N   2.97693342192688      4.02030064039038      1.39986449259328
  H   3.37323635191739      4.16638124419817      2.32160714801723
  N   1.73389652440187      3.11161867249679     -0.23888172155951
  N   3.78023104360912      6.05576849407354     -3.64262408937354
  N   5.21059922572958      7.12785616101787     -1.78575716956029
  C   -0.50899731486285     -0.57368741658658      4.72621160602448
  H   -0.20554058346033     -0.47454318086887      5.79369560105847
  O   -1.32715993923568     -1.41462120517659      4.37450556241998
  C   2.07611756122836     11.57022555719956     -8.67873917131714
  C   2.13811026948985     10.92866453273252     -4.35689226717737
  H   1.43722916495155     11.73658737537691     -4.55033542919863
  C   2.38938167407258     10.46488010637921     -3.06642960538215
  H   1.88507155425388     10.90327922678335     -2.20888131063596
  C   3.29609167634892      9.41339580897775     -2.85758223484128
  H   3.50159209692031      9.02691325558690     -1.86401326590397
  C   5.99223150488733      6.89615209291834     -6.63640522356938
  H   6.62256957848594      6.10672843812342     -6.23445552179366
  C   5.90902569587314      7.17336432815424     -8.01026670532737
  H   6.50585382016223      6.58209853205309     -8.70014358020822
  C   5.07377274861866      8.18504512046576     -8.48010408649792
  H   5.00921343953770      8.39503470457776     -9.54598418283932
  C   3.39654251087215      9.98794216952108     -7.81409106134323
  C   2.67051782776482     10.66806900453211     -6.81835329147115
  C   2.81460146291723     10.32169766943610     -5.43335573682836
  C   3.72243552999167      9.26933753207946     -5.14621998985613
  C   4.45188486967113      8.58941037461556     -6.16950989160991
  C   4.31359184655184      8.92505688046536     -7.54856043680557
  C   1.42120198199118     12.42091288945462     -9.66697223583109
  C   1.71511154934943     12.34171252660923    -11.04420431055178
  H   2.45706924805191     11.63799082923960    -11.42129808686949
  C   1.05798324068978     13.17656937948540    -11.94767482046708
  H   1.28536158497493     13.11613792823958    -13.01187785005657
  C   0.10165525726268     14.10015764210205    -11.49118713765946
  C   -0.19201175041201     14.18208250444413    -10.11518139145493
  H   -0.93588096336883     14.90539165270855     -9.78744870569632
  C   0.45940825061683     13.35257963248717     -9.21068295341713
  H   0.24657612646592     13.39958766874057     -8.14574796703098
  O   6.75889367960693      8.77234950521669     -3.59009130557189
  N   3.00112374622653     10.58310536915944     -8.99327429207564
  H   3.31381848812158     10.33537118211770     -9.92554758056735
  N   1.86565344271473     11.63423411064119     -7.36148394982279
  N   3.96174741851403      8.81983052443533     -3.87050938214538
  N   5.27828354108006      7.58608788445342     -5.71808126342080
  C   -0.59951788222779     14.98947653475116    -12.45275695027996
  H   -0.30568216720898     14.85782913060715    -13.51918119346235
  O   -1.44245201183541     15.81451310239204    -12.12329514816342
  C   8.17658371944296      8.45480988258550     -3.78104420280416
  H   8.34084817607793      8.03476437352920     -4.77808988769541
  H   8.75381624173474      9.37409263050962     -3.63026576838672
  H   8.41915948515916      7.70541635115182     -3.02864733952642
  H   6.52261479348561      9.48268388301289     -4.22084699353286
