78
Coordinates from ORCA-job BERJUG-OH_1_1_tpss_d4_lanl2dz_631gpol_Mn2.opt
  C   1.97858142142948      3.47572482453216      0.86266542316102
  C   2.16944051921231      4.42575303824978     -3.39474972573323
  H   1.35736148808450      3.71650125098823     -3.25478126132223
  C   2.51469654732023      4.90458398191840     -4.65379500216523
  H   1.97954356860847      4.57979773078803     -5.54236254929306
  C   3.57854184752999      5.81642506049093     -4.78684061041938
  H   3.88333826581228      6.19424067617855     -5.75848863817781
  C   6.62474299352776      7.58165234468329     -0.83667953555822
  H   7.39640869910560      8.25435300367695     -1.19944021157571
  C   6.51024484745964      7.19008490094221      0.50946277620383
  H   7.22186432665204      7.57661785611004      1.23426657116075
  C   5.50073054388058      6.31744113424229      0.89955469222738
  H   5.41221769143558      6.01273453124729      1.94063676829072
  C   3.52488667809890      4.90579195502155      0.11769559891967
  C   2.69755071044976      4.43952695281353     -0.92053078576380
  C   2.90611379372799      4.86411901509268     -2.27465602529754
  C   3.96094916680816      5.78741364253099     -2.49250475552522
  C   4.78622427465016      6.25985848820144     -1.41722537452748
  C   4.60393244681460      5.82105709755849     -0.07466970180597
  C   1.20899862326998      2.64713515647200      1.78455868693724
  C   1.43240250318966      2.66297583929973      3.17716132939438
  H   2.18916742840766      3.31209296991914      3.61734923022410
  C   0.67042175932855      1.85008192503069      4.01593910047368
  H   0.84198359986842      1.86297926464430      5.09216194879318
  C   -0.32374860074832      1.01373687306872      3.47923255321478
  C   -0.55038073771036      0.99850106103540      2.08831943373477
  H   -1.32546732205048      0.34236472600002      1.69773008690417
  C   0.20669766955629      1.80542734814102      1.24778538585896
  H   0.04874523124912      1.80626368105411      0.17230280116190
  Cl  7.18158003117404      5.67349261378844     -3.98236400035518
  Mn  5.89568647851932      7.54904660875088     -3.70532967403589
  N   3.04494525017161      4.27828862132046      1.24708364424599
  H   3.42779616277960      4.35012656368494      2.18334615905499
  N   1.75429230234207      3.56451273181300     -0.45086777997320
  N   4.28120006308894      6.25232772650262     -3.73360561315477
  N   5.77153317160041      7.13430401316228     -1.77199851130653
  C   -1.13714948978443      0.14877467069108      4.37228921550199
  H   -0.88999050298836      0.22336869751010      5.45593958685824
  O   -2.02015008603333     -0.59955390978520      3.97231008617547
  C   2.01198053317671     11.43818567767799     -8.42718370802349
  C   2.36325652298918     10.79518407735746     -4.11798668379409
  H   1.55503300454880     11.50554409208558     -4.27354096403462
  C   2.74934491467724     10.39320982009986     -2.84358952257826
  H   2.25250498457987     10.78421197487097     -1.95947958470501
  C   3.79598616212221      9.46451397149188     -2.68757566673603
  H   4.12089939438439      9.12717395490916     -1.70806926712926
  C   6.68898225199663      7.41523959526695     -6.60998796386825
  H   7.45319940558712      6.73409208822977     -6.24522950229309
  C   6.53279378204594      7.72221372433079     -7.97471415959959
  H   7.21446953162241      7.27657156347318     -8.69433628907248
  C   5.51753516622589      8.57555683760599     -8.38999591076383
  H   5.39392110021032      8.80765096068901     -9.44612568194316
  C   3.57741591918756     10.05250053445813     -7.63827687190286
  C   2.79502853441998     10.60384562099644     -6.60604042311390
  C   3.04971531901147     10.27197439951985     -5.23414881177897
  C   4.09878919664183      9.34783418328675     -4.99422425364617
  C   4.88571610890776      8.79554222037865     -6.05878438107294
  C   4.65731229411146      9.14393364122552     -7.42109691562423
  C   1.20791971507862     12.19779495740593     -9.37847899478736
  C   1.38615735857355     12.08522212997964    -10.77318405059593
  H   2.13425234310601     11.41249260234831    -11.19230087045123
  C   0.59072865660042     12.83256962292975    -11.64124791877865
  H   0.72699775762653     12.74469096285590    -12.71896935080737
  C   -0.39158242755686     13.69927905215683    -11.13154785017909
  C   -0.57239556172571     13.81186078066943     -9.73847812528108
  H   -1.33951651611312     14.48955105702227     -9.36960798014317
  C   0.21770572590641     13.07000640561667     -8.86877721109951
  H   0.09406375203493     13.14348053475270     -7.79131472949951
  O   7.16261000300234      8.75321714907438     -3.31842245902090
  N   3.05767785762926     10.59959839290455     -8.79153248406014
  H   3.39218155258901     10.44261315185722     -9.73593033666324
  N   1.84139306418831     11.45166807661182     -7.10232379266002
  N   4.44849566887765      8.94737494867362     -3.73753661901100
  N   5.87482646859355      7.93098091187685     -5.66992822067595
  C   -1.24110142122943     14.49548325455600    -12.05560975654380
  H   -1.03206098097818     14.34430309523198    -13.13911453010460
  O   -2.11340101598846     15.26716873128423    -11.67797509842760
  H   7.41848050749937      9.30839057686573     -4.08545438203554
