67
Coordinates from ORCA-job BEZJUN-oxo_1_4_tpss_d4_lanl2dz_631gpol_Co2.opt
  C   4.02208361405120      3.64620284277456      1.99407909737524
  H   4.14139578167434      4.47358189584697      2.69071905650821
  C   2.89667155195383      3.48891977535418      1.17331220216760
  H   2.10863452610430      4.23687869314011      1.19865906479650
  C   2.80770068829432      2.36377523233222      0.34650235455734
  H   1.93801949167673      2.21116664962722     -0.28873181676097
  C   3.86163717377345      1.44399150980118      0.33277610607389
  H   3.84303485094765      0.56867376636969     -0.31236827885478
  C   4.96747031680844      1.67316554734373      1.16110322770431
  C   6.14066698888608      0.80728924504977      1.16067315928765
  C   8.32153023595187      0.39103383000364      2.04580905780637
  C   9.52631158191909      1.08515464625639      2.28031790827084
  H   9.50680469452350      2.16854439896659      2.19906076929017
  C   10.69871323167455      0.39766280941368      2.58408351781520
  H   11.62493793347960      0.94442501536539      2.74464278901259
  C   10.67275737635809     -1.00253479876691      2.68762456150289
  H   11.57836646308108     -1.54981588664695      2.94104138108202
  C   9.49251692788310     -1.71269881318836      2.44311079749072
  H   9.47342847516825     -2.79801010554053      2.50290447665351
  C   8.32690492351533     -1.02595977841412      2.08786679344555
  C   6.90450374573268     -2.88591418796225      2.42095157642583
  C   7.12454771194617     -4.10400125824369      1.81790924404529
  H   7.52106373611862     -4.14195890184342      0.80508117739163
  C   6.84116147730954     -5.30677520501566      2.52757548294908
  C   7.05649870408213     -6.58680502135691      1.94659640952422
  H   7.43642428785521     -6.64534091509343      0.92754683350731
  C   6.78891779121936     -7.73872037480774      2.66470168263138
  H   6.95680641297015     -8.71341628954785      2.21107207510449
  N   5.01269928741241      2.74192423631922      1.99852997449480
  N   7.15592694045744      1.15056666990049      1.89114774324109
  O   7.15127483119904     -1.68087802057508      1.75440530853536
  Cl  5.47653881029505      4.18091498526234      4.86589673172745
  Co  6.63453483058860      2.84153361321955      3.21840951192585
  H   6.14576692599253     -0.07194112663107      0.51750000554017
  C   9.18271525415626      3.66544431675642      4.52610911591258
  H   9.11435268660197      4.47862182643544      3.80764673907891
  C   10.23037479265478      3.54865813269078      5.44811209966580
  H   11.01480772708760      4.30063114542922      5.46365957774481
  C   10.24420439225478      2.46430920312053      6.33354181276236
  H   11.05037975482001      2.34991877287172      7.05434060017150
  C   9.19695024784612      1.53822767643362      6.29203905487972
  H   9.15935263767752      0.69366234277013      6.97565163021932
  C   8.17425584536246      1.72308184682277      5.35380536490516
  C   6.99135819567632      0.89484300926911      5.25826327955432
  C   4.90490439273948      0.48476315224387      4.20678228799307
  C   3.67073720548961      1.14958968323530      4.09491980849640
  H   3.65543828995049      2.21682848548232      4.30352373519502
  C   2.52007464453807      0.44097788598853      3.75389814971053
  H   1.56584272659242      0.95769332652763      3.68506413783834
  C   2.60247466726512     -0.93757374163539      3.50290553687186
  H   1.71282427153254     -1.49650770366621      3.21957993740518
  C   3.81620119208534     -1.61943876123075      3.64386844416266
  H   3.87263870361819     -2.69239361102820      3.48082664104283
  C   4.96468146033941     -0.91899967175901      4.03038532062819
  C   6.37773391955668     -2.80707361272954      3.73689452949525
  C   6.10852220519236     -3.94737385211404      4.46004731948392
  H   5.70945588142608     -3.86779780234827      5.46954911264660
  C   6.33993942270122     -5.22685399013437      3.87749925897063
  C   6.07498837275455     -6.43026229118093      4.58742863943260
  H   5.69581751606130     -6.36830671906761      5.60662987983855
  C   6.29546850724369     -7.65997848557517      3.99310543362710
  H   6.09021793054367     -8.57500569634317      4.54506621119460
  N   8.19290587607603      2.76307675294669      4.47481901881705
  N   6.07676210466458      1.25044257734570      4.40296522508418
  O   6.18303694475798     -1.53073409331370      4.27546515547223
  H   6.85277393005668      0.04574361725524      5.92507381364721
  O   7.33315597977242      4.00785159978840      2.32342314578243
