68
Coordinates from ORCA-job BEZJUN-OH_1_3_tpss_d4_lanl2dz_631gpol_Co2.opt
  C   4.11986466880354      3.72417358214270      1.99478169580411
  H   4.27018088360517      4.55238196078702      2.68388994276641
  C   2.97552191411680      3.59561385110297      1.19796933095222
  H   2.21554310238188      4.37178582016588      1.22959433116828
  C   2.82812446172521      2.46166242581201      0.39161151330626
  H   1.94073391857593      2.33013577835726     -0.22354278526547
  C   3.84611438100422      1.50353003670451      0.37787016028245
  H   3.78155386673013      0.61600267194550     -0.24719079499095
  C   4.97709022355046      1.69900386014916      1.18058082171430
  C   6.10930369754023      0.78064926793882      1.17455203881907
  C   8.30175540407349      0.34978758882403      2.04438330699176
  C   9.49735708468867      1.05160159906415      2.30911289151853
  H   9.46259912227550      2.13636242355950      2.24740123333296
  C   10.67102479674244      0.36981904838676      2.61938855987028
  H   11.58973594964802      0.92172547741423      2.80418882990550
  C   10.65573144450387     -1.03224355881671      2.70137811469686
  H   11.56245428969902     -1.57557859546600      2.95956652540166
  C   9.48444440115024     -1.74911447004128      2.43285471847285
  H   9.47340024658214     -2.83519646682614      2.48063542849537
  C   8.31809285740500     -1.06734864717689      2.07118142997232
  C   6.90332714578438     -2.92848495809174      2.40115879014990
  C   7.11127156997322     -4.15080607610768      1.80246111192932
  H   7.49533855743641     -4.19545623805610      0.78513576525772
  C   6.83287963877768     -5.34866293313759      2.52249771651134
  C   7.03499846077188     -6.63281407662213      1.94587651993392
  H   7.40020349436638     -6.69864722625735      0.92187671115717
  C   6.77309132338607     -7.77966417260668      2.67416497040298
  H   6.93061768175367     -8.75756035293258      2.22360630212628
  N   5.08687469402907      2.78632686642005      1.99981568924092
  N   7.14414700197299      1.11312584191136      1.88120341790212
  O   7.14980039243166     -1.72921477483232      1.72398454409518
  Cl  5.40604987956071      4.11607428694966      4.90627869454624
  Co  6.61874049182322      2.82648280108763      3.24678182290998
  H   6.06371489064657     -0.11356541724831      0.55314643148780
  C   9.08958624532969      3.73972162749034      4.51656349102508
  H   8.98395060334208      4.54732337930926      3.79698554527223
  C   10.14708844045469      3.65099708507754      5.43037353357762
  H   10.90486477626870      4.42987193702961      5.44535896966902
  C   10.20656265919266      2.56329112863385      6.31021736608104
  H   11.02118575266678      2.47474026357041      7.02519587038566
  C   9.19407942630947      1.59973218074609      6.26988630795134
  H   9.19177826344925      0.74944780470290      6.94729833872222
  C   8.15880014555507      1.75231787734735      5.33999703659860
  C   7.00594313295446      0.88591770386614      5.24193232792676
  C   4.92145969867003      0.45182299956137      4.18000656587820
  C   3.68703100644563      1.11412417024397      4.05381185031222
  H   3.66946578298284      2.18359974362790      4.25213451175121
  C   2.53851247243757      0.40133579421293      3.71368087540939
  H   1.58426773415068      0.91687802107664      3.63549189113127
  C   2.62338753130211     -0.97886179707983      3.47473595500651
  H   1.73576857043631     -1.54165448743090      3.19244463274396
  C   3.83822766307352     -1.65718045264585      3.62400547208807
  H   3.89697534280727     -2.73088421091789      3.46696754417254
  C   4.98443116080385     -0.95232652963629      4.00944702358080
  C   6.39457416606116     -2.84028694415033      3.72401834484139
  C   6.13228260885256     -3.97575510963134      4.45710291391214
  H   5.74585491780352     -3.88876717400173      5.47090916602684
  C   6.35163639829974     -5.25934552764437      3.87896077707744
  C   6.09207155269601     -6.45765254635485      4.59941120750662
  H   5.72764662409495     -6.38841643240374      5.62353010156295
  C   6.29898389547994     -7.69160547557315      4.00897616938809
  H   6.09789207783104     -8.60273684757015      4.56893451464979
  N   8.13303162296316      2.80187866667613      4.46841902840234
  N   6.08741579742818      1.22381339001373      4.38282331441397
  O   6.20429365614280     -1.56096655404829      4.25721989960433
  H   6.88896193226204      0.03078096726670      5.90519082842770
  O   7.48234078756955      4.04444163951440      2.27477279587017
  H   7.01150561636643      4.19498648461781      1.42667004816660
