67
Coordinates from ORCA-job BEZJUN-oxo_1_2_tpss_d4_lanl2dz_631gpol_Co2.opt
  C   4.12698859049062      3.71941032642422      2.00347106966710
  H   4.26919572390905      4.54529599331038      2.69469452011197
  C   3.02905004850356      3.63142169686175      1.13593901919665
  H   2.29120012387929      4.42942164265101      1.13579675044261
  C   2.90091964191075      2.52448244486713      0.29024437335432
  H   2.04963165858650      2.43399719407287     -0.38054722011407
  C   3.90192637716812      1.54764841680033      0.30013868684953
  H   3.86548377551523      0.68681878713127     -0.36291763801273
  C   4.98196141684986      1.70664025513529      1.17511354780858
  C   6.14618014513094      0.85231584924864      1.20159195512888
  C   8.29822945241673      0.45600904980062      2.14674755989700
  C   9.52168058472888      1.14224630092617      2.24632023239006
  H   9.51145913235097      2.21622724313154      2.07904823610863
  C   10.69521430497038      0.44899932403914      2.53444391114543
  H   11.64073142718975      0.98220268136417      2.59659455622872
  C   10.64429352902274     -0.93767860251732      2.74971656371795
  H   11.55146077895054     -1.48541431610630      2.99672271212057
  C   9.44097256748459     -1.63981318885268      2.62088608231476
  H   9.40828148799064     -2.71744000174094      2.75832224057194
  C   8.26972139184462     -0.95322541458508      2.28160058075587
  C   6.85601582085805     -2.83908220993928      2.61703178555446
  C   7.15117789639919     -4.00739594685315      1.95080583567152
  H   7.58472872828411     -3.96917530450382      0.95317471443601
  C   6.89616869578409     -5.26203576600781      2.57633929412841
  C   7.19059201288226     -6.49371325122298      1.92929333211349
  H   7.61331081721487     -6.47379749844011      0.92575680885971
  C   6.94467213867591     -7.69767865992834      2.56482989772259
  H   7.17390493191659     -8.63479093660606      2.06159909196495
  N   5.06182809867804      2.75748308619873      2.04297906184050
  N   7.11448321480323      1.20839202661285      1.99845385055637
  O   7.06269729780818     -1.58288494015431      2.03480263665504
  Cl  5.76765345584336      4.19432772459330      4.65845164639147
  Co  6.61471002340394      2.68924517869128      3.18846373747565
  H   6.23481280867125     -0.00754852850122      0.54187724785066
  C   9.12665690924366      3.54017371365767      4.35249579703886
  H   9.01890267402471      4.30400338810469      3.58487051703090
  C   10.19404148729892      3.45885726250850      5.25488959572110
  H   10.97665731902778      4.21238621523828      5.22345850032675
  C   10.23243587291230      2.41072150269150      6.18232417675615
  H   11.05597632266228      2.32613463167583      6.88765446126478
  C   9.18270281900578      1.48636610973912      6.20907288126987
  H   9.15727191803536      0.67512102847052      6.93249523816332
  C   8.13413797124849      1.63537650115503      5.29358837303559
  C   6.93570804553178      0.82119297532408      5.27513091506220
  C   4.81959629078206      0.41986086162819      4.27148140741938
  C   3.60781647866469      1.10714637817300      4.07132959992614
  H   3.61375790760310      2.18587203492814      4.20422971168118
  C   2.44710674154829      0.41025592379922      3.74128585941425
  H   1.51123904005710      0.94735094571156      3.60580926701031
  C   2.49547039085909     -0.98420697397904      3.58302561994874
  H   1.59833815641999     -1.53497558935327      3.30727882344682
  C   3.68403141073875     -1.68692958656924      3.80852479798668
  H   3.71744947396413     -2.76965924235493      3.71619204248850
  C   4.83770047634241     -0.99367873218866      4.19067713586386
  C   6.27739050853342     -2.86238847490526      3.91264561506194
  C   6.02902992742914     -4.05553942394515      4.55371993979674
  H   5.59356308964678     -4.05302439658848      5.55114019357782
  C   6.33764878459396     -5.28613640031133      3.90539445582194
  C   6.09665583384487     -6.54103753694442      4.52962595764781
  H   5.67350015088953     -6.55749746202380      5.53300366208514
  C   6.39425478802817     -7.72149604403845      3.87266582889490
  H   6.20672811295375     -8.67676980510194      4.35887500655226
  N   8.14275183199880      2.62967122741379      4.36416553916325
  N   5.99983003288736      1.16991138584135      4.44070482425254
  O   6.02218378708841     -1.63267042018785      4.52523326625051
  H   6.81778937353632     -0.00438258017614      5.97434726866933
  O   7.38193797248153      3.89577992670626      2.18827704046563
