72
Coordinates from ORCA-job BEZJUN-CH3OH_1_4_tpss_d4_lanl2dz_631gpol_Co2.opt
  C   3.89384229341008      3.46984416682969      1.84543573939372
  H   3.97655225778857      4.34230056035977      2.49187471031050
  C   2.75763496373511      3.21105189482883      1.06659587744315
  H   1.92905475403688      3.91475647125988      1.07560629150853
  C   2.70965254701906      2.04019216229746      0.30161581356650
  H   1.83545901106498      1.80643776259810     -0.30218818647852
  C   3.80650979125443      1.17309583447626      0.32468269492740
  H   3.81281353888627      0.25217040792912     -0.25427184595524
  C   4.91335524544730      1.50523109544650      1.11805626874092
  C   6.09759477414251      0.65978242867610      1.18924852722089
  C   8.24524465173955      0.27753477565667      2.14592272856547
  C   9.45603287354336      0.96163286438770      2.37313281294674
  H   9.45803107952065      2.04160294961777      2.24775129197906
  C   10.61133578062084      0.27649195028220      2.74368826072250
  H   11.53995063529701      0.81990545734321      2.90169569383089
  C   10.55984684393076     -1.11408834668561      2.92447087360730
  H   11.44951988396246     -1.66076250427750      3.23041212008232
  C   9.37285820490766     -1.81745977899543      2.69364918242107
  H   9.33405361026730     -2.89701618390222      2.81520223579046
  C   8.22632653050506     -1.13419846264092      2.27385367096545
  C   6.81035855079393     -3.00851596544530      2.60034101087042
  C   7.03227252797627     -4.20708176517014      1.95999065257751
  H   7.42536192251905     -4.21200483301713      0.94505689294172
  C   6.75670014764912     -5.43249500897369      2.63247963875791
  C   6.97226067993307     -6.69290331802708      2.01008258704906
  H   7.34832250221604     -6.71795090793457      0.98811812005221
  C   6.70875740129528     -7.86764776537580      2.69169066079507
  H   6.87611032455245     -8.82719174845828      2.20645753311651
  N   4.94707823321699      2.63471671003574      1.87778571127553
  N   7.09491886339655      1.05503173837044      1.92546874232323
  O   7.04478798072965     -1.78763743232327      1.95993752200933
  Cl  5.69555613608061      4.62121335024095      4.40269990687553
  Co  6.57813813770834      2.72547007057091      3.24893729261308
  H   6.11922627868045     -0.26451866259872      0.61346348374658
  C   9.24675052931236      3.51397264074800      4.64279341425286
  H   9.21021893703793      4.33737812058984      3.93464527175705
  C   10.30320638528055      3.36130592545206      5.54935116935928
  H   11.10983577986912      4.08983286987589      5.56541672118324
  C   10.29592152747494      2.26549338928499      6.42050497909525
  H   11.10459719752101      2.11811355820648      7.13289389765127
  C   9.22400542359085      1.36969645535858      6.37028720851145
  H   9.16998104390497      0.51375607060396      7.03944270121818
  C   8.19901073005127      1.59606390272886      5.44134993967450
  C   7.01800825569858      0.74708682488636      5.35924422509548
  C   4.90030064040798      0.34665035780122      4.34186780475674
  C   3.69614939428457      1.04778280397549      4.14021546273021
  H   3.70913183601568      2.12460671268287      4.29627805277241
  C   2.53365820937335      0.37374897249622      3.76986694418254
  H   1.60546229405703      0.92388112335879      3.63479832307927
  C   2.57454875040902     -1.01443574228825      3.56798364372018
  H   1.67812924249949     -1.55049988188900      3.26247375089830
  C   3.75672204967679     -1.73220098995326      3.78222282840804
  H   3.78284181459751     -2.81087709462869      3.65025571949874
  C   4.91112254962272     -1.06185016922007      4.20241375909409
  C   6.29104791502696     -2.97086692857284      3.92194448288383
  C   6.02895808777445     -4.13553593907699      4.60853827013635
  H   5.63472716102158     -4.08731475455967      5.62187596928262
  C   6.26086731193414     -5.39587668363786      3.98573764877819
  C   6.00016705445833     -6.62194898586025      4.65766757222224
  H   5.62447995850773     -6.59294440293810      5.67964299484321
  C   6.21975386404493     -7.83183718607220      4.02354907560339
  H   6.01726844202240     -8.76436902054353      4.54658881356088
  N   8.22535484050862      2.64575997338154      4.57652123312998
  N   6.06575735550369      1.10578158361747      4.55314165050882
  O   6.09506603977770     -1.71808048973339      4.50835864427490
  H   6.94666138249778     -0.13262833654362      5.99876773440728
  O   7.60044407607951      4.25845442237131      2.08248129594698
  C   7.41932899252365      4.41128271689699      0.65349292013867
  H   7.99178072050763      5.27642579163741      0.29909210944975
  H   7.80845509745144      3.49704383313968      0.19856541301258
  H   6.35875932729974      4.52828349276664      0.40119151446583
  H   7.13259082454566      4.98991509627552      2.56125232382222
