68
Coordinates from ORCA-job BEZJUN-OH_1_1_tpss_d4_lanl2dz_631gpol_Co2.opt
  C   4.02737363270185      3.57040739336213      2.01796399863002
  H   4.08248244396640      4.35080641893690      2.77265367466609
  C   2.96779933752653      3.47479692498894      1.10644179404843
  H   2.17676427527422      4.21949344396013      1.13712800858895
  C   2.94406097916527      2.42755294895468      0.17972767746710
  H   2.12528641961098      2.33004745219129     -0.52926405284745
  C   4.00575547007068      1.51840164289180      0.16797927279544
  H   4.04811149309112      0.70176524181360     -0.54858429174849
  C   5.04253305996871      1.68327066247324      1.09307554412748
  C   6.23629519996190      0.87193370051492      1.12523475997408
  C   8.33314799066934      0.45408594461557      2.14992495254524
  C   9.56256524514917      1.12729891081095      2.25211089863669
  H   9.56706167837356      2.19778751703362      2.06738686630984
  C   10.72512987841220      0.42157085292373      2.55721782814642
  H   11.67688064592137      0.94347069176414      2.62195466582710
  C   10.65646625500963     -0.96234587690517      2.78352401003421
  H   11.55509479596174     -1.51843021112180      3.04297364221427
  C   9.44663601344095     -1.65179023072467      2.64739502381968
  H   9.40055150514084     -2.72826402031145      2.79026730422935
  C   8.28707706921702     -0.95287229800371      2.29278064545555
  C   6.85402583065334     -2.82358340642842      2.61490537244831
  C   7.13250856981272     -3.99282874625183      1.94279817848398
  H   7.56283691212518     -3.95479484231869      0.94371079333621
  C   6.86380733510915     -5.24726408667916      2.56265353864316
  C   7.13778093377276     -6.47930661556475      1.90717241388304
  H   7.55574369219818     -6.45956505245112      0.90149870004979
  C   6.87731554646038     -7.68340397174515      2.53663530946256
  H   7.08996265121955     -8.62072160332528      2.02639451018191
  N   5.03281839934981      2.67845931787408      2.02853317135961
  N   7.15035668934573      1.20929805330024      1.98785798841577
  O   7.07416973175865     -1.56967366227972      2.03592245477459
  Cl  5.76943662306301      4.23813754779571      4.57563831052559
  Co  6.58771172806563      2.64520174304509      3.18547185542854
  H   6.38077348364250      0.04984668271959      0.42751887472758
  C   9.12358324774059      3.53012167666203      4.27126218501017
  H   9.01340424650476      4.26221258267166      3.47385705860985
  C   10.20311720889319      3.47059345132631      5.16067390778867
  H   10.99227811145453      4.21472137906617      5.09156451339049
  C   10.24701481746088      2.45464359726344      6.12308520362543
  H   11.07943580061119      2.38787124651450      6.81984995021301
  C   9.19431119642439      1.53584118483637      6.19153999185730
  H   9.17553140344462      0.74566500162969      6.93809576471776
  C   8.13597135508432      1.66108369634186      5.28419310430523
  C   6.93728084148923      0.84957699658642      5.28769889456411
  C   4.82155833822913      0.43096121114442      4.29360014895265
  C   3.60341029920279      1.11300651344065      4.12341685829686
  H   3.60702811060888      2.19118295487337      4.25895569159375
  C   2.43772717922529      0.41122907688032      3.82181508290894
  H   1.49652318687319      0.94417960209251      3.70872052971869
  C   2.48829079003681     -0.98296581361426      3.66443324559724
  H   1.58762748669351     -1.53803356522589      3.40995870950733
  C   3.68440432812285     -1.68023343888130      3.86410151631505
  H   3.71965547203615     -2.76282784036363      3.77230597464360
  C   4.84467029579857     -0.98204644930417      4.21736320051909
  C   6.28157274120019     -2.84662643687595      3.91345056756588
  C   6.02260446382154     -4.03978613182875      4.55059152132312
  H   5.59199559069807     -4.03688539310925      5.55019775472150
  C   6.31168463903174     -5.27109361802711      3.89445185851171
  C   6.05567793679360     -6.52612452155177      4.51253558547376
  H   5.63729600474586     -6.54231034313629      5.51804237414618
  C   6.33275833149058     -7.70695737317149      3.84708354364200
  H   6.13329160315536     -8.66214111370602      4.32867101100414
  N   8.13262746158746      2.62952407657640      4.32671765345842
  N   6.00589179884310      1.18352166441152      4.44053373424716
  O   6.03821651065417     -1.61585264185427      4.52942326549469
  H   6.81113508248568      0.03836852711299      6.00155966647464
  O   7.39831654508665      3.88215632368201      2.06432894249157
  H   6.98132605926037      4.73110544967818      2.33298729466908
