50
Coordinates from ORCA-job AZMTCO-OH_2_6_tpss_d4_lanl2dz_631gpol_Co3.opt
  Co  0.13888153091054      0.13205435693702     -0.05431196610927
  N   1.55830645038706     -1.32580230977739      0.56742657175312
  N   -0.12926414171490      0.51487062115860      2.13750273559014
  N   -1.17299010524141     -1.41861952403981      0.39122337497590
  N   -2.38512851469517     -1.40200662816568      0.51523370852843
  N   -3.55128726864294     -1.40547397226610      0.63385758253849
  C   1.41946955652652     -1.43717463303969      2.04676279953706
  C   1.15429599552876     -0.05155553103134      2.65302082913979
  C   -0.35743104209109      1.98141897769485      2.37071991838355
  C   -1.63508380061189      2.46955913807262      1.64956679763753
  C   1.52499645635333     -2.63246398010421     -0.15346459284574
  C   -0.45220444012820      2.26502992046711      3.88688778795225
  H   2.44982445769947     -0.86085947891777      0.35505418526684
  H   0.57787353004095     -2.11177364670755      2.24776107697330
  H   2.32176728817793     -1.87154848337022      2.49878013069848
  H   1.11475642169339     -0.13692598648854      3.74757706235747
  H   1.94936470991339      0.65358376199041      2.38339166751855
  H   -0.91355250446054     -0.01122318713396      2.54089422140871
  H   0.52094108910914      2.48423821477381      1.94777730350708
  H   -2.49173829480935      1.83505023191746      1.93126397710968
  H   -1.86360000523542      3.46312397948468      2.05604165072966
  H   0.60432457363880     -3.14726789518518      0.14522266867199
  H   2.37519415106506     -3.24474722564402      0.18158390354476
  H   -0.57547734344645      3.34435268829427      4.03943565703541
  H   0.45670546810748      1.95300568784698      4.41339920045740
  H   -1.31710486184502      1.75680010397082      4.33456352923557
  N   -1.57590843778575      1.31008707420655     -0.58456109150183
  N   0.03189234598948     -0.54775299368121     -2.12002785338782
  O   1.33967173058208      1.39828954937426     -0.33114101328142
  C   -1.56160715927388      2.62672660923616      0.12325452814112
  C   1.58637959815468     -2.46461753106821     -1.67808290567265
  C   -1.49223507124717      1.40531126737640     -2.07263837022801
  H   -2.46647539091970      0.85357257287580     -0.35113092990953
  C   -1.24132463337938      0.01113809467817     -2.66041297916803
  C   0.28956846586319     -2.00672847744597     -2.38472657431043
  H   0.81938102805231     -0.00748243324933     -2.50443470706093
  H   -0.64275267378613      3.14490401709595     -0.17326385491862
  H   -2.41698110722284      3.22837775159165     -0.21791090590849
  H   2.42020532711380     -1.80154442058412     -1.96193402572701
  H   1.83833762079356     -3.44888957013199     -2.09303661994577
  H   -0.66029390903924      2.07911991042201     -2.31105747030184
  H   -2.41223364102007      1.83209435876056     -2.49522809956107
  H   -1.20137091525116      0.07736458491255     -3.75560491772746
  H   -2.04820703881055     -0.68274810210593     -2.39246445820882
  C   0.37555578580953     -2.27222883694275     -3.89982592585712
  H   -0.56815582901685     -2.54200354756882     -1.95598244328309
  H   0.54043220353532     -3.34297652774704     -4.07080139344817
  H   -0.55001271771980     -1.99237856239795     -4.41605446999615
  H   1.21357435609801     -1.72495194774268     -4.35375115851556
  H   1.87031070625108      2.20522195939876     -0.49016414181744
