49
Coordinates from ORCA-job AZMTCO-oxo_2_1_tpss_d4_lanl2dz_631gpol_Co3.opt
  Co  -0.06738155494361      0.02141465407793      0.06413930734193
  N   1.36675253091226     -1.28760390333191      0.59144773402207
  N   -0.08344523886721      0.59399724435192      2.01980834809095
  N   -1.41338620742935     -1.22622652680856      0.61183961706728
  N   -2.10268051966913     -2.00623799317602     -0.03902228033899
  N   -2.78884437536541     -2.76870462809606     -0.58526771319936
  C   1.31171431437647     -1.41154393873322      2.08009760360573
  C   1.13257399340605     -0.01880475895211      2.64929393303429
  C   -0.22403355444556      2.06395501298714      2.33632950361983
  C   -1.48048436954503      2.63649762105782      1.66780073964789
  C   1.38626336250437     -2.61365372000954     -0.09075450513680
  C   -0.27046167138395      2.28874833603267      3.86188768453121
  H   2.21329616261416     -0.76209765129321      0.32889947290911
  H   0.46104385057178     -2.05787895504177      2.32364439806895
  H   2.23262254181726     -1.88082728851304      2.45062873415188
  H   1.00989002097805     -0.06044194327074      3.73732893159554
  H   1.98423575936250      0.63008056127555      2.41206899379240
  H   -0.91935126240022      0.09101621115209      2.35614305533818
  H   0.67028351202980      2.53788619540418      1.90999904810319
  H   -2.37789585811714      2.08852130659694      1.99826074969819
  H   -1.60557455122929      3.66486007931271      2.02889081611596
  H   0.47690148819034     -3.15002140684779      0.20350425183290
  H   2.24822117094432     -3.17114945533245      0.30424895275545
  H   -0.42630670896253      3.35739127151274      4.05102641401014
  H   0.66528607077074      2.00456303022475      4.35414576642576
  H   -1.10266934342570      1.73909124501376      4.32273747458832
  N   -1.49983745711884      1.34169681351328     -0.47509292790650
  N   -0.04728826302073     -0.54905149292959     -1.90615418476337
  O   1.10989530621958      1.15195297013109     -0.30385267444764
  C   -1.40638174561514      2.69686909816068      0.14633865656850
  C   1.50553537067086     -2.48603361137517     -1.60647403200093
  C   -1.48691983102349      1.41514622197897     -1.96936723152828
  H   -2.37130846702690      0.89345587267469     -0.16118130221426
  C   -1.29520047734800      0.01596621503471     -2.52027971498914
  C   0.24038116640751     -1.97919678249960     -2.31145180518972
  H   0.74606218615457      0.02184163478809     -2.23472980343276
  H   -0.46322213651856      3.13995490997456     -0.19208567311764
  H   -2.23719574427145      3.29830126174908     -0.25036456689658
  H   2.37329551076676     -1.86344313044811     -1.87832301778180
  H   1.71823780093689     -3.48726745885048     -2.00155027018952
  H   -0.65014585836588      2.06628490759067     -2.24932868103035
  H   -2.41968621938738      1.86658689466698     -2.33159365200746
  H   -1.19617880993278      0.04665675869926     -3.61117021195189
  H   -2.12972002627691     -0.64925777676790     -2.26956784037745
  C   0.39814909034293     -2.07861590256011     -3.84281256014735
  H   -0.62583033093449     -2.57158701772487     -1.99522911727608
  H   0.67540429187297     -3.10817032797677     -4.09827844391780
  H   -0.53208363884646     -1.85258236418188     -4.37434357478715
  H   1.19476871962097     -1.41483829324136     -4.20653440228685
