50
Coordinates from ORCA-job AZMTCO-OH_2_4_tpss_d4_lanl2dz_631gpol_Co3.opt
  Co  -0.04837308388025      0.01297946046282     -0.04854102862053
  N   1.36332891548990     -1.27932415951133      0.51430106459994
  N   -0.20216877438648      0.53687201700029      2.09785398808454
  N   -1.43693410451103     -1.27228030713040      0.10786693193616
  N   -1.94003064095396     -1.78703727714192      1.10199997484711
  N   -2.44737448747450     -2.30526079985935      2.01204343150266
  C   1.32717941780985     -1.38764567702251      2.01079881173545
  C   1.08290363048378     -0.01355399187932      2.62843562290261
  C   -0.40662176812958      2.00309242724493      2.37008864350622
  C   -1.63206943925843      2.51414915832967      1.58450838048503
  C   1.37017457209026     -2.60873436788170     -0.17654291689312
  C   -0.56039886778362      2.28280204959380      3.87494081961408
  H   2.20133899133487     -0.74478103865227      0.23970200094140
  H   0.52775847180466     -2.09219438095705      2.27158864872301
  H   2.27664132133094     -1.81142120057170      2.36515210314700
  H   1.06582118226978     -0.10025574566867      3.72228066531912
  H   1.87867659293545      0.68460060346049      2.34444359007101
  H   -0.97669499654389      0.03504251761870      2.55294018064455
  H   0.50117413793035      2.49785075472614      1.99572160461868
  H   -2.50991102443987      1.88313845354326      1.79897040548146
  H   -1.88280876667376      3.50950056145317      1.97369077472168
  H   0.45574229457466     -3.13566873224425      0.11927612380035
  H   2.22748548646019     -3.17071598365355      0.22298547246919
  H   -0.66023971770931      3.36158633607124      4.04441923764706
  H   0.31232801666841      1.94033471368980      4.44259190022884
  H   -1.45777006137989      1.79243840876150      4.27787499426702
  N   -1.40166324176607      1.37333076541080     -0.66653458145995
  N   0.07553767295247     -0.54545171790564     -2.15295146970463
  O   1.32381062085369      1.16522292750883     -0.23118489432552
  C   -1.45415416264178      2.67648034343450      0.06968722695939
  C   1.48927644318848     -2.51902995906765     -1.70118686937885
  C   -1.25371989923865      1.50685846171224     -2.15677140520057
  H   -2.28558163588835      0.87994121498277     -0.48604849102012
  C   -1.10896306655630      0.11446611194444     -2.76728343647015
  C   0.24825379636286     -2.00277989672062     -2.45534335523180
  H   0.92311287246862     -0.04687631532112     -2.45505180314292
  H   -0.54332032857012      3.24112409659677     -0.17035573408918
  H   -2.29781149466982      3.24919049917371     -0.34246006605164
  H   2.37598354747804     -1.92795470057755     -1.98315625667163
  H   1.69000130722015     -3.53924625198482     -2.05309384982912
  H   -0.36302957847200      2.11803199739971     -2.34576537099892
  H   -2.12826339179951      2.03102672374147     -2.56515374553330
  H   -1.01069775950013      0.19616250939848     -3.85751611464944
  H   -1.98747304728793     -0.50610917676059     -2.54822892702187
  C   0.37625010529483     -2.26696285491791     -3.96672733078134
  H   -0.65289614453685     -2.49639851390243     -2.06547819486486
  H   0.48909655504584     -3.34332140993144     -4.14306463651674
  H   -0.51442007801676     -1.93763185379427     -4.51409530029682
  H   1.25661821111090     -1.75950345018407     -4.38485297949465
  H   1.13448539890990      2.12746664998260     -0.19058384000591
