68
Coordinates from ORCA-job CEHXUM_1_1_tpss_d4_lanl2dz_631gpol_Fe2.opt
  Fe  6.37538478185101     17.97311445276589      7.42550208894184
  H   7.77654550229741     17.54885554140773      7.69992989278166
  P   6.81446810162835     17.30493618032173      5.34603836089370
  P   6.28743338776080     18.17409113222102      9.65245449672562
  P   5.92082873160328     15.82940452624653      7.81671714150490
  H   4.58298537975898     15.35295922240305      7.91785471022795
  O   7.45848962065087     20.65273298688836      6.99604468993859
  C   7.05080674039836     15.47356947064059      5.34847475705249
  C   7.57284274795526     14.74840537195631      4.26148736845010
  H   7.94234080453415     15.26680925281997      3.37954213465577
  C   7.60808263055694     13.34991136663280      4.29505623462780
  H   8.01992157139525     12.79991439524520      3.45126437316591
  C   7.09257179014228     12.65634441079162      5.39881793955576
  H   7.09619070442306     11.56835136095615      5.40959376247400
  C   6.56517763859390     13.36224338599560      6.48511773321821
  H   6.13716106170088     12.81404594979470      7.32156177218960
  C   6.57505674068708     14.76851289194342      6.47987170739856
  C   6.59883011303186     15.39914677488044      9.46382019190019
  C   6.94038441020859     14.11134069638092      9.90559275837951
  H   6.87333784233433     13.25878700533097      9.23551263282012
  C   7.39842941646740     13.92006826486462     11.21418911877110
  H   7.67842263537530     12.92322008679348     11.54865788554924
  C   7.49627867598636     15.00889210137375     12.08995788928316
  H   7.84903457651760     14.85883366286307     13.10833139211598
  C   7.15267028575882     16.29450086074062     11.65604062194450
  H   7.24528284173204     17.12944354402637     12.34679393618414
  C   6.71091163132541     16.50856284292080     10.33783096786888
  C   5.31648825030165     17.59353925525715      4.26863650833201
  H   5.31450367898185     18.68358425227134      4.11077228569426
  C   4.06814059307982     17.23134935083240      5.09817673062012
  H   3.15121955623823     17.48353681783111      4.54914744867638
  H   4.05056606349303     17.78943406150387      6.05125473453343
  H   4.03941489489459     16.15671619070805      5.32874391302769
  C   5.34429865235434     16.88203851838214      2.90671661029793
  H   4.46097417952502     17.16835950850789      2.31982385195657
  H   5.32860972131222     15.79185596783196      3.03214420994568
  H   6.23360686944194     17.15075132150490      2.32124962198213
  C   8.28468809338355     17.94418672758368      4.40163973514735
  H   8.41621145919307     17.25183920258021      3.55603142967118
  C   8.05884194571627     19.35546225930219      3.82383464163263
  H   8.96492030793135     19.66980270613992      3.28915884895227
  H   7.86498701338997     20.09380036997904      4.60922332672781
  H   7.22747678498345     19.37856257089348      3.10827740053725
  C   9.54058515114285     17.87274884703343      5.29412069426373
  H   10.42656886330760     18.14603947021332      4.70613615681892
  H   9.69496772040954     16.86336286714588      5.69815879956556
  H   9.45852414055366     18.57026530616820      6.13676277216737
  C   4.60382567064811     18.58431088358303     10.35573353276266
  H   4.43811496939499     19.63294677843704     10.06266090599908
  C   3.54215454796354     17.71516047924468      9.65539784283179
  H   2.53628477956492     17.99682584890892      9.99362001008306
  H   3.68699595293286     16.65012579962096      9.88753012047709
  H   3.57926136331902     17.84021221063725      8.56263738572029
  C   4.51946927026322     18.46516755527789     11.88755787593333
  H   3.52409299436937     18.78119762245461     12.22770690845724
  H   5.26009166058281     19.09679307169407     12.39473248063779
  H   4.67111201583413     17.42598021477421     12.20702817545061
  C   7.47504238665134     19.30785194242944     10.53272775095910
  H   7.42243567177657     19.01892906578706     11.59382016592291
  C   8.91269691951110     19.06371822517270     10.03436625880117
  H   9.61489778934230     19.65913026062366     10.63286898971888
  H   9.02177926982486     19.36126474851456      8.98481794175367
  H   9.19761538819522     18.00712726286726     10.12197730518478
  C   7.06233722337962     20.79039080301835     10.43437194948843
  H   7.79459879412591     21.39986284074009     10.98038425586357
  H   6.07809531108075     20.97539832497424     10.88276120215883
  H   7.04476700788233     21.14419120514375      9.39818468746407
  C   6.99806670904694     19.58978154521922      7.16164797516157
