69
Coordinates from ORCA-job CEHXUM-oxo_1_3_tpss_d4_lanl2dz_631gpol_Fe2.opt
  Fe  6.15548463122016     18.06616504124841      7.41600015322522
  H   7.63354728662527     17.52252758858297      7.65500181800775
  P   6.72189566311715     17.33755965644300      5.33442387961112
  P   6.29938343539203     18.20140066143090      9.68658461103970
  P   5.73887090369376     15.89526560804757      7.81708457140541
  H   4.39811980214198     15.44000479829559      7.90040656793383
  O   7.41114878390430     20.70394960948496      7.00710839536175
  O   4.56008439060524     18.57811345412993      7.17425327197150
  C   7.03286328979928     15.52805706432785      5.42127384808820
  C   7.65389009686142     14.79334760661778      4.39521626983087
  H   8.12302772540384     15.30165191434302      3.55600189573729
  C   7.66371314130714     13.39417577306251      4.43667259528991
  H   8.15452443991729     12.83444828499303      3.64311192681370
  C   7.01800853234798     12.71400948463114      5.47770772458341
  H   6.99446283608424     11.62638037605694      5.48727721311367
  C   6.39999596235525     13.43228192446669      6.50684141328561
  H   5.87848928865194     12.89332796022328      7.29441707310635
  C   6.44258446815679     14.83793127257762      6.50445410585624
  C   6.43459330093218     15.43147117266006      9.44856130838821
  C   6.65975310156378     14.11566563793492      9.88474161567358
  H   6.45249296137268     13.27074475178112      9.23481695145407
  C   7.17979536848965     13.88103517526173     11.16263571913079
  H   7.36783130816196     12.86049302571060     11.48974508119903
  C   7.46145239931128     14.95585308670437     12.01481476323701
  H   7.86959217785775     14.77301909025375     13.00670668185506
  C   7.22160540384758     16.26909100913365     11.59369585028847
  H   7.44480923668177     17.09113899812987     12.26987936947303
  C   6.71009556875096     16.52008353453890     10.30800967630987
  C   5.29592583525959     17.47124925893513      4.13701063268070
  H   5.05943087530052     18.54645425069703      4.12490461691350
  C   4.07454229942266     16.71308202697534      4.69358815731664
  H   3.22193941943102     16.85488843470543      4.01644322053713
  H   3.79155773534420     17.09732093283982      5.68070982161490
  H   4.27616142355183     15.63474329713195      4.75746123942137
  C   5.64410304042826     16.99395639320693      2.71369684228964
  H   4.78224834878609     17.17518998007504      2.05777771780782
  H   5.84869103108893     15.91556374419567      2.70125013905586
  H   6.50466915667254     17.52012945460470      2.28301376121889
  C   8.21625287570747     18.03124671234251      4.46992536232132
  H   8.37900598462021     17.34771874995997      3.62189299642503
  C   7.98056686176389     19.44144752108553      3.89043833174142
  H   8.86980702177844     19.74197211689514      3.32094523063679
  H   7.82436912344149     20.18680690307196      4.67580276078677
  H   7.12200557882878     19.47304160401260      3.20874538676021
  C   9.45569239626048     17.97120290078145      5.38379063056638
  H   10.34793432695261     18.24939168148960      4.80767467017806
  H   9.61073465170670     16.96482873771611      5.79410028890105
  H   9.36036299773697     18.67023258285335      6.22308600825324
  C   4.66719494085944     18.61260947665680     10.48939401606732
  H   4.41049059369622     19.60658648083821     10.09191920105043
  C   3.59040651449977     17.61368371035007     10.02338300385774
  H   2.62633543765758     17.88169983502786     10.47552007120149
  H   3.83560269912401     16.59078497959713     10.34438251741671
  H   3.47505839107947     17.64493973945889      8.93354471922890
  C   4.75158467961470     18.66678465957120     12.02763271541882
  H   3.76990412047047     18.95138316493620     12.42895323158592
  H   5.48284108234836     19.40020488552914     12.38937068718149
  H   5.00735991903047     17.68210887902665     12.44057462749178
  C   7.56795900345339     19.30660684841125     10.48006405227548
  H   7.56377294483175     19.00668237561103     11.53973295813389
  C   8.97206362043916     19.03456759546726      9.90809942792940
  H   9.71712001051433     19.59232070907102     10.49074732478583
  H   9.04645512148155     19.35997913352186      8.86395694838072
  H   9.22871618700177     17.96829702106681      9.95245038698051
  C   7.17849492209357     20.79807429839804     10.42277799499715
  H   7.93026486217388     21.38131301696548     10.97074417380250
  H   6.20393179808764     20.98850189289219     10.88894908440321
  H   7.14884213227900     21.17746110573770      9.39681116593698
  C   6.91518453062545     19.66694934721598      7.16588952517558
