68
Coordinates from ORCA-job CEHXUM_1_3_tpss_d4_lanl2dz_631gpol_Fe2.opt
  Fe  5.68197888474598     17.89823781751925      7.38712368819583
  H   7.25895518452881     17.95017761225294      7.54220589831422
  P   6.68041484103601     17.29045091510277      5.46828158832520
  P   6.27876724428543     18.15906606647337      9.53311843691673
  P   5.53521595404339     15.68770045653722      7.84485130539769
  H   4.35316455812665     14.91392596324669      8.02009852917888
  O   5.21595549766747     20.74440334520594      6.68398338484643
  C   6.95987577552675     15.47521440924153      5.47902649592403
  C   7.65681023334667     14.80878181685248      4.45327127568544
  H   8.12488143045922     15.37689979600586      3.65132810330143
  C   7.74420259831540     13.41230026041274      4.45293006389250
  H   8.28428296427149     12.90417451229431      3.65644807994481
  C   7.12102918688337     12.66740976746406      5.46456230491972
  H   7.16974194199126     11.58050959849639      5.44934425040104
  C   6.43317259191207     13.31898165750749      6.49392387338666
  H   5.93766638606862     12.73095020913958      7.26461659269749
  C   6.37049000043336     14.72378607838273      6.52250884455083
  C   6.39559990030409     15.36937174296745      9.44254786355408
  C   6.68853295044421     14.08682256708947      9.93671882928280
  H   6.42038516520077     13.20177673585269      9.36457833826335
  C   7.33658068222892     13.93800980871814     11.16754197823715
  H   7.56817727214735     12.94239772344272     11.54041919281508
  C   7.68511827153468     15.06804094042961     11.92003221966214
  H   8.18930949935156     14.95110426761872     12.87721177283433
  C   7.38354612257503     16.34851309548284     11.44397994003238
  H   7.65307008045767     17.21857613086971     12.03934322479467
  C   6.73889666891030     16.51186275259442     10.20336914610319
  C   5.40576196994123     17.56960854845314      4.12394741488016
  H   5.34239009503273     18.66672944544324      4.04816432207003
  C   4.05140833241012     17.03411054906369      4.63293685834540
  H   3.25975664278406     17.25255796968117      3.90419127299195
  H   3.76915855866979     17.50213639200360      5.59039684358787
  H   4.09019667047983     15.94539229383665      4.77892962086189
  C   5.76753682914107     16.98352540463205      2.74827102948210
  H   4.99984636912121     17.27613208730032      2.01916225704982
  H   5.79750032387512     15.88701109858756      2.78269101709988
  H   6.73299342508978     17.35015372263235      2.37510175979970
  C   8.26431869731308     18.06117326960097      4.88329730593037
  H   8.36712948665578     17.79682696851035      3.81892959132177
  C   8.16961438881175     19.59428646195254      5.01574358621946
  H   9.08985457085674     20.05305764937020      4.63141055120504
  H   8.05827579155562     19.87574314252450      6.07120689523219
  H   7.32505344114025     20.01428495636441      4.45524180095848
  C   9.47035169792526     17.50399987523340      5.66298850278667
  H   10.38485111888952     18.01636587182515      5.33589451871367
  H   9.60300690685211     16.42741138340195      5.50558825569763
  H   9.34749194438936     17.67768899452812      6.74060284650365
  C   4.73854034877726     18.66785212529029     10.47281739922463
  H   4.58506090752412     19.71784878236320     10.17872327820993
  C   3.54481809212863     17.84100717376550      9.95552633633003
  H   2.61609720792685     18.18049686097084     10.43292824698130
  H   3.67176806236811     16.77327910598473     10.18739465007324
  H   3.42606142840251     17.94959300187704      8.86516629670192
  C   4.87946847580280     18.57744160909465     12.00226039164776
  H   3.95919216537150     18.94648450029063     12.47454300240871
  H   5.71128366283521     19.18475122940895     12.38192740252011
  H   5.03055942093859     17.53850555745395     12.32208000828361
  C   7.61495506949418     19.32008443740881     10.09488354670885
  H   7.59078876061645     19.29215149263878     11.19608234093197
  C   9.00090896063962     18.85727894525164      9.61076897832267
  H   9.77411280780801     19.51301557646258     10.03255521554413
  H   9.06036638218120     18.92042506215295      8.51668771418258
  H   9.22243347533505     17.82555982522820      9.91003876273284
  C   7.31825053604793     20.75976104131707      9.62976303304982
  H   8.07793724860130     21.43747607440594     10.04089492053981
  H   6.33604397056265     21.12012782127277      9.96140385834472
  H   7.35929652944959     20.82778999222982      8.53553964428304
  C   5.36893733945639     19.62202765298272      6.96455350078128
