74
Coordinates from ORCA-job CEHXUM-CH3OH_1_1_tpss_d4_lanl2dz_631gpol_Fe2.opt
  Fe  6.50964726270117     18.01362483456312      7.41196604727186
  H   7.87913689390872     17.36070801088133      7.65871884241763
  P   6.87051986486978     17.32707461928598      5.30005955928873
  P   6.53056715969463     18.14297782715475      9.64901812203760
  P   5.93301138972380     15.88284154399391      7.74742297048610
  H   4.60867672790135     15.36730540799970      7.62746078007580
  O   8.07428387947139     20.45278257581659      7.08699744947812
  O   4.53452128923984     18.85382668693713      7.03880481647186
  C   7.28157361930480     15.53087620323876      5.39072341423718
  C   7.96288987361011     14.82598375268925      4.38233873367905
  H   8.31962566446605     15.34218517862288      3.49386556914808
  C   8.20464845975270     13.45387740065715      4.51677329346169
  H   8.74398511579934     12.92088147215861      3.73621824861583
  C   7.75730867862650     12.76919024699316      5.65361334642143
  H   7.94720104822408     11.70295718349383      5.75935484347905
  C   7.06771291852306     13.45522314972352      6.65977947408491
  H   6.73178748165917     12.90965392278769      7.53677999559886
  C   6.83773678775107     14.83514588306428      6.53974530226310
  C   6.34397852008417     15.38046730399057      9.46209086931831
  C   6.24567987710883     14.07132394550806      9.96490936973978
  H   5.86243606722573     13.26587294617665      9.34278146739579
  C   6.62608706734955     13.79604978667649     11.28292506554630
  H   6.56098991381817     12.77907582549536     11.66445484565732
  C   7.08963154070800     14.82862814092513     12.10903548099220
  H   7.39847475691208     14.61209855952413     13.12981420326254
  C   7.13150230241137     16.14508674447449     11.63424564585704
  H   7.46309336487961     16.93826190183398     12.30084903036973
  C   6.74762399874814     16.43574490362649     10.31278710097276
  C   5.39680262188079     17.37292179896624      4.13825250376255
  H   5.10813722201952     18.43523820423721      4.09686948380321
  C   4.23002926484717     16.57871111307882      4.75754067130085
  H   3.34281292951400     16.66140250100043      4.11511732416491
  H   3.97333646873152     16.96877346284336      5.74867738583453
  H   4.48332958092568     15.51245433496767      4.84052890875354
  C   5.70328520543268     16.87620988818388      2.71298919634470
  H   4.79419701406301     16.95010681209666      2.10064121914797
  H   6.01111721071650     15.82243753070064      2.72534432888673
  H   6.48511754802377     17.46441785610826      2.21717429092968
  C   8.27837453380500     18.04026852701462      4.31263015356145
  H   8.36177469274221     17.39572037685666      3.42424765812165
  C   7.97580273406110     19.47030211315290      3.82102412981801
  H   8.80486681385758     19.81744397398475      3.19014244081407
  H   7.87768519155137     20.17452843718002      4.65366074128702
  H   7.05974024953123     19.51195124260799      3.21706194260576
  C   9.60238414110374     17.94843819682500      5.09554466901832
  H   10.43111516319063     18.27473699933024      4.45288107044289
  H   9.80538806783491     16.91999454955473      5.42089352888150
  H   9.58811256259295     18.58997886703338      5.98306715077070
  C   4.90792968642471     18.65502597443255     10.45949237585350
  H   4.66098729759921     19.62213354916881      9.98814881342565
  C   3.80603708798017     17.62571056829444     10.12307742524020
  H   2.81769536634012     18.02380129016855     10.38848614143410
  H   3.96291853438058     16.70097259399187     10.69257210167545
  H   3.78576593973735     17.33405932008388      9.06042248489746
  C   4.97485965240848     18.85540724308551     11.98571965222795
  H   3.98746258980066     19.15947312612637     12.35937123747724
  H   5.69410239557365     19.62882666080027     12.27767533075311
  H   5.24581677510116     17.91716361705572     12.48686681144408
  C   7.83901039081877     19.13075464021607     10.52748752597616
  H   7.73995864305414     18.86035258760703     11.59055336002576
  C   9.24097188363872     18.70319093327577     10.04833059874951
  H   10.00522114780157     19.21881824133064     10.64502729772228
  H   9.39538704467512     18.96513083366585      8.99569420592729
  H   9.39193315948962     17.62136605000962     10.15723101555628
  C   7.62114981996132     20.65359893108954     10.40878998577524
  H   8.35264881693343     21.16969700806433     11.04465236806485
  H   6.62032814567193     20.95965638355393     10.74048246820394
  H   7.76831197188567     21.00400898492241      9.38305958802578
  C   7.40804945516377     19.49548291770532      7.21165013004818
  C   4.48646308186214     20.24824277351094      6.62854805508678
  H   3.44510043977654     20.53769572666420      6.44776619374018
  H   4.94719199573073     20.89414839934325      7.38563019609798
  H   5.05994851686849     20.30402764300384      5.70169266710847
  H   4.04536942042247     18.76923125881064      7.88112928358298
