70
Coordinates from ORCA-job CEHXUM-OH_1_4_tpss_d4_lanl2dz_631gpol_Fe2.opt
  Fe  6.09316700635187     18.29459333706621      7.37829882152576
  H   7.60215774446901     17.74483500319192      7.62914440322815
  P   6.73471351811234     17.36228252297692      5.32186587121068
  P   6.29926435122223     18.23379249330001      9.71246971788437
  P   5.54212801178857     15.82193334468576      7.81646956652521
  H   4.32414173273152     15.09883098228143      7.95271830739976
  O   8.14266717507690     20.69180271157556      7.09330678964121
  O   4.48476441741830     19.03842744594412      7.09386882570607
  C   7.02665151776448     15.54890312594007      5.47333701523615
  C   7.73677069697114     14.82715923901245      4.49428805986781
  H   8.25418367818282     15.34790194747671      3.69219463304429
  C   7.78041839070477     13.42897037135410      4.52603695591523
  H   8.33858366209778     12.88962076708776      3.76338679386316
  C   7.08210630881797     12.72672351389599      5.51579511306860
  H   7.08086825615973     11.63864605136749      5.51913830474921
  C   6.38121969490768     13.42898852377182      6.50087076017858
  H   5.82043569426052     12.87587080473444      7.25133926308031
  C   6.37764317474884     14.83650788805035      6.51337763008654
  C   6.35798924752069     15.42727774059528      9.42106079092066
  C   6.61663373322817     14.11523036690429      9.85478562591540
  H   6.36437029787363     13.27030332981928      9.22029559445543
  C   7.20352277590380     13.87708939905608     11.10120825059920
  H   7.40154149796185     12.85615956595227     11.42130166592151
  C   7.52978875020436     14.95388777758414     11.93422259977726
  H   7.98550438972568     14.77639037219835     12.90628786371735
  C   7.26866766145441     16.26369395084552     11.51940384401646
  H   7.52749775756744     17.08462431997891     12.18377065919027
  C   6.68698439223543     16.52029646786246     10.26223816341533
  C   5.28332088079890     17.45446598683604      4.13964712458750
  H   5.08853257326920     18.53397911182498      4.04461403101712
  C   4.04232759017483     16.79531222002831      4.77313831834166
  H   3.18753000674897     16.90380212871065      4.09187517788571
  H   3.78419687864503     17.27598238256014      5.72391807204018
  H   4.20556064878557     15.71992214482267      4.93199387112042
  C   5.59334333260640     16.85578187431377      2.75527841816587
  H   4.71665921183495     16.98366775693052      2.10606239951620
  H   5.79946626634067     15.78018757654193      2.83083390971169
  H   6.44452813252240     17.34205214703538      2.26221600606051
  C   8.20650510237928     18.00084490522302      4.37689280573988
  H   8.32432139618087     17.31799560369393      3.52215829529012
  C   7.95532115189043     19.41001194876612      3.80233457733396
  H   8.84847204046527     19.73744224567654      3.25416714347639
  H   7.75951782826088     20.14859573325837      4.58651192012536
  H   7.11111531921962     19.42062224592667      3.10181485247451
  C   9.48177874563789     17.92135703250135      5.23904626636136
  H   10.35308076232657     18.20060859841335      4.63186683109282
  H   9.64551568009395     16.90654214426445      5.62443656825803
  H   9.43004125677947     18.60700217969977      6.09239716561677
  C   4.64426952947399     18.61396717659694     10.50053119307737
  H   4.40686958931476     19.63256952810178     10.15734580397482
  C   3.56699881751944     17.65880399826102      9.95144490487469
  H   2.59401520781254     17.91844982591031     10.39012876311911
  H   3.78724970584085     16.61769191949216     10.22900669349133
  H   3.48330550446079     17.74431331738532      8.86170131485765
  C   4.69609047274012     18.57876996087603     12.03968571064228
  H   3.69940360726406     18.81285743841670     12.43752122708951
  H   5.39884509509031     19.31077019196872     12.45696858121595
  H   4.97321442609572     17.57956976602629     12.40132018170915
  C   7.54078880733232     19.30097587233808     10.60090353159285
  H   7.47317319064758     19.01668818204245     11.66203824456156
  C   8.97053758420518     19.00123047334271     10.11128908631386
  H   9.69010460735089     19.57941139928053     10.70612973408345
  H   9.10181668465732     19.27847602264053      9.05951124907403
  H   9.21675160476713     17.93692320020227     10.21705961151617
  C   7.17201487838295     20.79605751122072     10.50879969876892
  H   7.91905435634707     21.38459767184954     11.05730637317996
  H   6.19071634697944     21.00330423214791     10.95374643885726
  H   7.16137202384918     21.15645783968763      9.47479859813150
  C   7.20551269879721     20.01427203593667      7.13885720759643
  H   4.39392492064742     19.99761310473643      6.92639020791538
