65
Coordinates from ORCA-job AJONUJ-CH3OH_1_5_tpss_d4_lanl2dz_631gpol_Co3.opt
  Co  2.93513225371917      9.00167712886274      0.49441760466151
  Br  1.16915733397897      8.61274575314412      2.25839981047907
  O   4.49508558542523      9.30142612044912     -1.07460521569457
  N   3.69089986560423     10.48627884088421      1.79367498693059
  N   1.83815832869292     10.44393557183563     -0.57147716434336
  N   4.36533482094242      7.99163224272928      1.62713835347206
  N   1.91867875528463      7.87998851986792     -0.98281211778686
  C   5.69800289956645      2.17934461663804     -0.75464954442362
  H   4.94187543909543      2.37250314608849     -1.52306590449282
  H   5.85629067313914      1.10547033221262     -0.64273808951559
  H   6.64425020947279      2.67837901030723     -0.99727498146318
  C   2.01588357688078      1.48084337445205     -0.18181346982318
  H   2.66944197729967      1.66849440838823      0.67937655099741
  H   2.15306873262891      0.45843545341898     -0.53954465359878
  H   0.96525054282876      1.64474566202397      0.09086439825942
  C   0.10795117377612      7.95791175883384     -2.70545042808159
  H   0.40318853668561      8.15346145637950     -3.74669899069713
  H   -0.88241772130308      8.40786967266144     -2.55931139110737
  H   0.03321519289216      6.87617764049606     -2.56599529259791
  C   4.89432881727006     10.93391351244256      3.92750799132390
  H   4.29305619047467     11.84776216374055      3.90399259398730
  H   5.95122678008323     11.22077318914182      3.81393013835261
  H   4.78230967654634     10.44589111716810      4.90338667270582
  C   5.70127451002840      8.04016529024699      3.75975088965415
  H   5.12249110854616      7.76070936801215      4.65268782167498
  H   6.45210101336955      8.77281468117540      4.07786988961909
  H   6.21143287873771      7.14610210857065      3.38785620833907
  C   0.21199155527074     10.96635518395373     -2.34714616896557
  H   0.74511096533603     11.90826752780691     -2.51863762749081
  H   -0.69917538257309     11.21085597380265     -1.78100939309784
  H   -0.08118605021705     10.53369019624805     -3.30811265589841
  C   2.40251552439365      5.82005936126238     -2.26394220913921
  H   2.62702209904272      6.41134239685530     -3.14999068097364
  C   1.74619048012731      5.69708202359534      0.07814319856452
  H   1.43505725219570      6.20541277062383      0.98884344770837
  C   5.14425020021770      4.93096598584250     -0.26012010855764
  H   5.41519148153771      4.66744278964250     -1.27722967045180
  C   4.43925229610022      5.62803511675044      2.38872794320742
  H   4.12007007224453      5.89659925143402      3.39181175665516
  C   4.88306684902631      6.25431562632889      0.06237335432887
  H   4.95284634023718      7.03604817703548     -0.69035473460308
  C   4.63758011530666      4.29942618297665      2.05815371838817
  H   4.51417648210600      3.50927825399611      2.79486730592916
  C   2.53215981809334      4.43547124947627     -2.29927995037023
  H   2.83494008458478      3.92189576987073     -3.20909290271091
  C   1.84327408508864      4.30668006833981      0.03953442384848
  H   1.60554249995192      3.73398484014498      0.93101881168554
  C   5.01746423953002      3.93880273512100      0.73858637671218
  C   2.24294824516817      3.66659851468794     -1.15023864749638
  C   4.57544796333188      6.63651902212704      1.39562762853044
  C   2.00866879278646      6.46394412588850     -1.07179976057523
  C   4.44873232382307     10.02954901079148      2.82011022003378
  C   4.80260938731042      8.64289875648559      2.70941814614727
  C   1.07513721180182     10.02902493794199     -1.55262195612978
  C   1.09093002862410      8.56474642845198     -1.73645202316450
  O   5.22142063957001      2.61903424047371      0.53991728097441
  O   2.38602242075238      2.31986998147355     -1.29486256119057
  O   1.82505676121240     11.78174584032708     -0.33583986390819
  O   3.39722547298292     11.73730934917503      1.75919780347783
  H   2.42527973403564     11.87704420892191      0.49535171401348
  C   5.58366858363009     10.21196819836040     -0.75133301815882
  H   6.27872440383907     10.27103785827777     -1.59661843424368
  H   5.19871576405576     11.20565719791905     -0.49500637121880
  H   6.08506171952245      9.77016061436606      0.11188761303327
  H   4.01798038828554      9.65429809305085     -1.85306867172431
