65
Coordinates from ORCA-job AJONUJ-CH3OH_1_1_tpss_d4_lanl2dz_631gpol_Co3.opt
  Co  2.97132948890512      9.16919227014892      0.48046593356660
  Br  1.28557467292089      8.67116127219978      2.14106877756176
  O   4.33259102073580      9.43874801546506     -0.97353932526346
  N   3.72191224495821     10.47409736699202      1.67796854382744
  N   1.78193607320376     10.43965075585610     -0.37128015597335
  N   4.22039029136832      8.00087697436234      1.46086994252537
  N   2.01209398252977      7.94732915903174     -0.80367614140310
  C   5.62911156119242      1.90782612215819     -0.08055666488808
  H   5.08962099542308      2.09602739569759     -1.01794992058316
  H   5.66012804761619      0.83586972633497      0.12562170067148
  H   6.65122065127321      2.30543290320464     -0.13914361515172
  C   2.08443283400475      1.50565705318279     -0.74112977097246
  H   2.60502808779638      1.59897969920553      0.22071816844418
  H   2.28970928796637      0.53038784970040     -1.18732250666930
  H   1.00216928789730      1.63333997265793     -0.60538560203976
  C   0.17019958476465      7.88658721483204     -2.49387988513882
  H   0.46302909867728      8.07418325647874     -3.53721492151164
  H   -0.84146248946450      8.29005628894810     -2.36059229379217
  H   0.15574042579115      6.80675429182248     -2.33020183990826
  C   5.14282369723162     10.96599206544836      3.61293396443527
  H   4.32771649371997     11.55991574203725      4.04512349443522
  H   5.84877249182609     11.67484442382741      3.15634080636566
  H   5.65464920309483     10.42141023615565      4.41102664144284
  C   5.86916767520600      7.96356871298452      3.33637163328675
  H   5.41769060603766      7.74858261515076      4.31587650764425
  H   6.71797598496209      8.63648895454944      3.50773150646891
  H   6.22937114763319      7.02239463239962      2.91333615409839
  C   0.05724796626899     10.92580919040533     -2.05500643618872
  H   0.55534876271793     11.87778837426252     -2.27271975906392
  H   -0.80804219293052     11.15403666800446     -1.41540620813372
  H   -0.30210537051732     10.48167119353312     -2.98763428058703
  C   2.75090851631109      6.05740976470928     -2.18578364894202
  H   3.09595060587953      6.75692091506451     -2.94582677824625
  C   1.74316569021664      5.65101665078221     -0.00649268690538
  H   1.30319505538051      6.04439211777089      0.90598802174717
  C   5.22554344508318      4.70732326493560      0.05109889530937
  H   5.71859827900408      4.32349493903703     -0.83674835312394
  C   3.93673920263494      5.72699558173897      2.33083235039258
  H   3.42036942703240      6.13732120059720      3.19594167875413
  C   5.00697262687002      6.08043008477400      0.17250383420325
  H   5.33641512439423      6.75955469836514     -0.60996851724568
  C   4.14601986318752      4.35856424584462      2.21264087499476
  H   3.81365078771668      3.66896962714817      2.98500022113676
  C   2.86895285773135      4.68746285944858     -2.39206031907574
  H   3.30233047741325      4.28959461075792     -3.30656172205958
  C   1.84583514360795      4.27574394423981     -0.21565836019383
  H   1.49007458862148      3.59690308943788      0.55329992263822
  C   4.78983931250225      3.83893639102105      1.07064312400564
  C   2.41891926375048      3.78636942230314     -1.40522941359971
  C   4.37743125778710      6.59767724253864      1.31317162720179
  C   2.18747095594378      6.54507639813521     -0.99021591464198
  C   4.57834586808080     10.03303383556097      2.58465378100821
  C   4.86204460039385      8.62425326478438      2.43263201221758
  C   0.99930744073009     10.00784911655720     -1.33547832277690
  C   1.11347708880083      8.56794913496306     -1.53818522835480
  O   4.92410722759295      2.48353218191962      1.03651057982663
  O   2.59285816070120      2.46565360318753     -1.68957167899778
  O   1.72060246160214     11.73696446283325     -0.08080488919122
  O   3.42153138790046     11.74016232216039      1.65898647978906
  H   2.44534088926689     11.84858614553147      0.74121128904853
  C   5.35989466233961     10.47072783862003     -0.80741406187748
  H   5.93246989813016     10.53405854398279     -1.73796139059999
  H   4.90195892506592     11.43099857365502     -0.55009754128309
  H   5.99611035881065     10.11774740262991      0.00460546656770
  H   3.79583693670508      9.66653612792614     -1.76224577923145
