136
Coordinates from ORCA-job CIJBUT_4_5_tpss_d4_lanl2dz_631gpol_Fe2.opt
  Fe  7.86876506260970      9.79186188082151      5.79119003540431
  N   9.07173627718035     10.99911952776260      6.74913928701389
  N   9.28843397437502      8.40431461381450      5.78825933543457
  N   6.71475458361687      8.61080757752717      4.74511082553877
  N   6.70448861686909     11.32579060036223      5.32252625335045
  C   8.61262373434243     12.15426926828107      7.38603885030473
  C   9.28416510630837     12.35176261486987      8.63522520674072
  C   10.26749274562863     11.34998253708658      8.71628461081692
  C   10.14602892681188     10.56833640259597      7.52238479108049
  C   11.00638717899290      9.55236760101924      7.03180042765686
  N   12.35758407962519      9.52680311062698      7.55992957211425
  C   13.18791874453591     10.59233509459369      7.33395370427554
  H   12.76553851907610     11.39426370612323      6.73870021863272
  C   14.47633457182303     10.60354686453422      7.84646539891125
  H   15.11869218324386     11.45668878311099      7.64545857307734
  C   14.92980339818032      9.51090091838526      8.60532257535019
  H   15.93709712660378      9.50591607505989      9.01553353236445
  C   14.06550127693769      8.42837212179250      8.82943676971321
  H   14.37720889848105      7.56871898242272      9.41658808618775
  C   12.78255636276277      8.45648810000135      8.29968360652652
  H   12.05590351744070      7.66347425733543      8.43512261718976
  C   10.63830731496968      8.60500410707119      6.08113941996882
  C   11.46577524957871      7.63121622581792      5.38405768125379
  C   10.59399149341555      6.73380210948871      4.78482990042837
  C   9.24963219409204      7.19520725589880      5.09414749252020
  C   8.02959612595257      6.57287830374996      4.84591015819885
  N   8.04425954101946      5.16828805670387      4.47421843397947
  C   8.44276878905944      4.23606556001313      5.39258210620944
  H   8.72162347301559      4.62719316643435      6.36439412734810
  C   8.47232933838684      2.88786224210337      5.06107092722685
  H   8.78949732747032      2.16484745273345      5.80788052865668
  C   8.08635808483304      2.48547666915471      3.77332755550388
  H   8.10388487107780      1.43358264292481      3.49702331993142
  C   7.67281976302953      3.45666717729861      2.84541391204290
  H   7.37102005891555      3.18300382716115      1.83790219498784
  C   7.65565210793638      4.79290834173391      3.21729396767602
  H   7.34946426304920      5.60047081755905      2.56173954783574
  C   6.77289308709521      7.22065534338391      4.86903523519643
  C   5.46208122341172      6.64709237408036      4.82600383484522
  C   4.57785819154695      7.70497533098939      4.55038975521811
  C   5.38044673113999      8.88806375890069      4.46009713655612
  C   5.00631584847294     10.19017837219286      4.03926742606484
  N   3.78920520361667     10.30089854774689      3.25683340549326
  C   3.71787740392423      9.69219684762368      2.03224299101012
  H   4.61593281305750      9.17291977100180      1.71658848572499
  C   2.55731700356254      9.76185987954042      1.27617834563324
  H   2.52936785451262      9.27794685110059      0.30360916234571
  C   1.44610567782805     10.46252191518707      1.77564337907722
  H   0.52810881796320     10.52426074356642      1.19569154581206
  C   1.53553070634373     11.07907974077957      3.03314004027688
  H   0.69598393791201     11.62456037953367      3.45568315719948
  C   2.71524431718400     10.98521865152751      3.75881335932740
  H   2.85979924547252     11.42876361646207      4.73730482968354
  C   5.72915770074061     11.34516081094605      4.32404970780588
  C   5.54411975375439     12.69519696637375      3.81315851437874
  C   6.30818676609079     13.52748507733423      4.61870986430113
  C   6.97380603028362     12.66917372805360      5.58644525538409
  N   7.68130302854552     14.40358332459120      7.14857347532206
  C   8.79325105657345     15.19504063094576      7.05322134739066
  H   9.67184021206616     14.71820655151119      6.63329808025901
  C   8.75392585852937     16.51662481617856      7.47257820480003
  H   9.64582218992573     17.13003346934189      7.37662198915177
  C   7.56265541670369     17.03842070903447      8.00515701112048
  H   7.51659044128275     18.07245074958275      8.33950872669840
  C   6.43488706010600     16.20931622837542      8.10421657823181
  H   5.49917915036667     16.57515448056804      8.51840290866254
  C   6.51545344924606     14.89249601905672      7.67082194459911
  H   5.69258893612725     14.18825020641371      7.71619394080599
  C   7.73572356947603     13.02387753910217      6.69661508622110
  C   8.89252564091986     13.29072263815699      9.74848360725576
  H   8.79374496013552     14.32686703735600      9.40269733129363
  H   9.68984989763494     13.30878257090243     10.50013911921468
  C   7.57328177750476     12.84660383601206     10.42514213656569
  H   7.30155012433571     13.54485862215003     11.22538068876577
  H   7.67838552481133     11.84662959101022     10.86354961715996
  H   6.74794444792534     12.80765031271730      9.70002246736953
  C   11.12388893328437     11.05465152706615      9.92214266850009
  H   11.12470382199907     11.92632209812564     10.58647442834686
  H   12.17501363351897     10.89592394639530      9.65142243629044
  C   10.60273065283288      9.82851406905387     10.70800982721155
  H   11.23408718106457      9.63921408394656     11.58397823888507
  H   10.60028575057464      8.92613178849328     10.08001982840115
  H   9.57557947508567      9.99707708250529     11.05394773310187
  C   12.95378609541939      7.69900099333007      5.15298119350559
  H   13.28755273363528      6.75808137831870      4.70162388462921
  H   13.51360802970083      7.78917088195759      6.09096239032036
  C   13.33203087695672      8.86865945051709      4.21116005440129
  H   14.41767196078515      8.89508692496093      4.06282605071570
  H   13.01360379447437      9.83645419070325      4.62178432556730
  H   12.85521546331086      8.74994160412323      3.23111552022316
  C   10.98539029977767      5.64906207947851      3.81347529600348
  H   10.42958853937707      4.72136911593436      3.98822093239825
  H   12.03934481932477      5.39095651855893      3.96697901471668
  C   10.78624284372058      6.10390468042712      2.34662491605055
  H   11.04951091450884      5.29067637797279      1.66045239198995
  H   11.42267784283478      6.96596699126777      2.11553998528953
  H   9.74479761026028      6.39876674458881      2.15758515128475
  C   5.06255457172926      5.24484549911893      5.21305478765167
  H   5.63070255229666      4.48421610656338      4.66382489103852
  H   4.01471020224093      5.08034902614816      4.93761489400990
  C   5.22560414449943      5.01051509883961      6.73407725139781
  H   4.94233705483750      3.98390538933982      6.99438395443218
  H   4.58724136751348      5.69683939096673      7.30386173871551
  H   6.26393465045782      5.17850707270617      7.05382609625376
  C   3.07252150637437      7.61062046639706      4.55176967678330
  H   2.77880138210482      6.56010232989070      4.44453506068318
  H   2.62860347045930      8.12476838678388      3.69067431585965
  C   2.45916498632804      8.16894439403598      5.85756194965665
  H   1.36676311893830      8.07956829675474      5.83512288820648
  H   2.71741183292803      9.22841766034752      5.99755558801674
  H   2.83107615488203      7.61667200282936      6.72919296252452
  C   4.85418135501480     13.09784927567271      2.53475992394012
  H   4.77393515364588     14.19004260695295      2.50084793178160
  H   3.82387452961149     12.72691372557317      2.48796725879475
  C   5.63454962052144     12.61493182678363      1.28700189375438
  H   5.10975909628045     12.92126635452207      0.37484016816339
  H   5.74248080299463     11.52183687188296      1.27559442895837
  H   6.64097654076872     13.04879281942804      1.26525793617687
  C   6.56293291707888     14.99236165756296      4.36861752143322
  H   6.52560333905134     15.57850226326571      5.29313915184892
  H   5.76189338782382     15.39277783514644      3.73693687595030
  C   7.92183540601792     15.22070558382125      3.66233078582315
  H   8.08961421236578     16.29244513079359      3.50500671601013
  H   7.94176353938322     14.72413280829587      2.68534621304368
  H   8.75462153675821     14.81997818987050      4.25651070095206
  N   6.88828950904011      9.22263301377335      7.61209294003061
  C   7.50495969676125      8.40971391138965      8.49868122884019
  H   8.50058368838133      8.07799414758940      8.21572439856727
  C   6.90112587863865      8.02006184239479      9.69513947077276
  H   7.43121004618453      7.36707861354733     10.38418705382735
  C   5.60999267152889      8.48228145105167      9.98365993625177
  H   5.11245747247459      8.19402067073752     10.90721316170280
  C   4.97153003059176      9.32255382098829      9.06173069607540
  H   3.96993107678192      9.70245214745723      9.24812551528907
  C   5.64419099141743      9.67200972064154      7.88981956940477
  H   5.20363329546722     10.32538742910259      7.14129095586745
