138
Coordinates from ORCA-job CIJBUT-OH_4_4_tpss_d4_lanl2dz_631gpol_Fe2.opt
  Fe  7.91169685034970      9.81853810147646      5.68648350313771
  N   9.03212937791053     10.97632815806520      6.82384643237707
  N   9.30660673641292      8.19479119968142      6.01562236589408
  N   6.69078038762743      8.59079164658250      4.74781786218811
  N   6.43853126825421     11.39635428373761      5.51997388232042
  C   8.60924794090015     12.15610364187340      7.40845102573705
  C   9.37604310120993     12.41618878374575      8.62330415005058
  C   10.35402272644956     11.43425743968056      8.68645934045123
  C   10.15047881441322     10.57290752198229      7.52562635664717
  C   10.98161360038239      9.51357578502676      7.08611614954140
  N   12.35350496266597      9.53598994301550      7.57943763224780
  C   13.16818176101336     10.57829878677042      7.23480571944790
  H   12.72116413459337     11.32896103790708      6.59241814048103
  C   14.47640824977108     10.62964779028878      7.69646682082661
  H   15.10982597976047     11.46301515127793      7.40476020723422
  C   14.95651113750219      9.60237144557711      8.52407896327528
  H   15.97797631138627      9.62946841311359      8.89731128838692
  C   14.10642457898476      8.53739163287678      8.86292022372135
  H   14.44375603336592      7.72526419029994      9.50132840466622
  C   12.80731658011423      8.52111864814751      8.37430036686792
  H   12.09110918559138      7.73472483203705      8.58419925719614
  C   10.63389028340944      8.45888623331770      6.22148939695088
  C   11.48030315445391      7.49657427476211      5.50551720412799
  C   10.60976394760553      6.60164427363418      4.90734616773317
  C   9.26009762029489      7.06417101923124      5.25480378729094
  C   8.00304179129166      6.52737215309863      4.90434063891279
  N   7.99655474373684      5.12089321086689      4.51816851893013
  C   8.35116078083612      4.17711261365256      5.44145420412705
  H   8.59609662680887      4.55596375815153      6.42739329709801
  C   8.37979810687934      2.83227678715934      5.09837685305386
  H   8.65715472999821      2.09829029022196      5.85020978655940
  C   8.04856965533302      2.44797499868725      3.78934778423550
  H   8.07000017286713      1.39883045194878      3.50258361122695
  C   7.69027968453657      3.43168644558719      2.85367544966352
  H   7.43459556075382      3.17176180809728      1.82998525296159
  C   7.66862566434008      4.76470914890013      3.23995426278468
  H   7.40455876512546      5.58179032512729      2.57823741709021
  C   6.76745852190268      7.20728295073709      4.83973539967766
  C   5.43964317849103      6.62495002707574      4.71177623118510
  C   4.57463952734427      7.67110566922472      4.41723946089645
  C   5.37817403477177      8.88503776407043      4.41389623454163
  C   4.96063574478067     10.19611701653321      4.07782469064586
  N   3.76704159423299     10.29550233839876      3.24666647483456
  C   3.77922300432879      9.75859028832411      1.98934303493804
  H   4.70900033903767      9.28770837470317      1.69048988765657
  C   2.65492058295406      9.83619734200491      1.17899472192578
  H   2.68976752407590      9.40886136704247      0.18046084380797
  C   1.49934793659595     10.47073930674678      1.66197387860456
  H   0.60866483846030     10.53786398421826      1.04105531673566
  C   1.50651410333685     11.02069154168715      2.95370005937330
  H   0.63071777226734     11.51847072885844      3.36131138732768
  C   2.65428948011176     10.92646283579312      3.72878847810930
  H   2.74074047577059     11.32881375944436      4.73184924403343
  C   5.57222041934360     11.40581023742336      4.45931994256664
  C   5.40708194826615     12.76061474553513      3.92177897190149
  C   6.16804611535675     13.58256425921457      4.73443930148018
  C   6.79394162570184     12.69708507404495      5.72667625861713
  N   7.67636769847424     14.40115942218498      7.22282336091348
  C   8.78245525362303     15.17708302997287      7.01832155079589
  H   9.62089741358611     14.68168050943271      6.54181664822833
  C   8.78581409638915     16.51037944859299      7.40513510921010
  H   9.67184757970762     17.11314045975549      7.22486822466350
  C   7.64421544022845     17.05436312707117      8.01494801308670
  H   7.63113596156274     18.09713563125376      8.32461428136090
  C   6.51919698413738     16.23991936608094      8.22068125440367
  H   5.62026816790263     16.62612386016717      8.69360023784182
  C   6.55478291733649     14.91376582869626      7.81152777304690
  H   5.72888246390136     14.22108270270770      7.92894159502860
  C   7.67673933786534     13.01064742199657      6.78095885874465
  C   9.02390233066780     13.37417309899446      9.73574774751454
  H   8.91121411754362     14.40518707669328      9.38183575805629
  H   9.84957989732139     13.40275977091581     10.45505156780742
  C   7.73444034054115     12.93600814978241     10.47160119410280
  H   7.50082892212756     13.64082542530969     11.27799616796893
  H   7.85679040489407     11.93919964019958     10.91225859888787
  H   6.87506453990212     12.89259744002374      9.78792808332000
  C   11.25618870291116     11.17760160893274      9.86956445977202
  H   11.29693526012864     12.07942323193644     10.49050321509603
  H   12.29351533684201     10.98953802489443      9.57061330721783
  C   10.74185179574419     10.00220791412897     10.73417617431149
  H   11.39773626195487      9.85005352475331     11.59920765362941
  H   10.70456613081849      9.06608860178505     10.15916842388504
  H   9.72900115792350     10.20600490072368     11.10189597830468
  C   12.96403102871192      7.58358039757879      5.25090226676941
  H   13.31127009647906      6.63133309299158      4.83341634144435
  H   13.53188522894050      7.71845327081308      6.17918215991516
  C   13.31417969275879      8.72067779081898      4.26007554079563
  H   14.40005276076169      8.78130923822534      4.12218853398276
  H   12.95171063106043      9.69442606837315      4.61644481860215
  H   12.85497494799180      8.53952675787423      3.28156693277409
  C   10.98896016139094      5.53719692935782      3.90862514718672
  H   10.42626331863076      4.60971928184684      4.06900806691805
  H   12.04156025416445      5.26628943223580      4.05231493285670
  C   10.79145040754647      6.01878049640272      2.45110620757039
  H   11.03549848525473      5.21486860850077      1.74686817335714
  H   11.44098477894330      6.87396159121812      2.23251482078971
  H   9.75471830873723      6.33725672303301      2.27098880684066
  C   5.01990875788901      5.22634869735314      5.09635369117138
  H   5.59576465417453      4.45446142028721      4.57351127577159
  H   3.97963143178583      5.06854847221539      4.79141749014195
  C   5.13236198635794      5.01024434716276      6.62548191618046
  H   4.81896633169455      3.99327713640838      6.88849005320020
  H   4.49206941347795      5.71765684922388      7.16626832461835
  H   6.16221657025008      5.16034177940850      6.97833838526037
  C   3.06897900873917      7.56664773552449      4.36858998804079
  H   2.78991703733259      6.51939336725200      4.20703877226860
  H   2.64517619933977      8.11109561324305      3.51744554014203
  C   2.41237223050537      8.06081009970665      5.67918037343422
  H   1.32255960671342      7.95833051497989      5.62050860887238
  H   2.65021736835947      9.11614374413843      5.87427288693869
  H   2.76613545133090      7.47579207527904      6.53640380691935
  C   4.76154147965144     13.16390470118571      2.61956938666698
  H   4.65737146547432     14.25490082926126      2.59582228736524
  H   3.74113778499444     12.77215807535399      2.52799388009392
  C   5.59791735089491     12.71860179268773      1.39521864841138
  H   5.09945638169222     13.01930064504363      0.46630056542237
  H   5.73899766302364     11.62889089545261      1.37582425015860
  H   6.59259510461115     13.17817857173508      1.41524679792579
  C   6.46391286634204     15.03826286444079      4.47502097752978
  H   6.46433993123950     15.62354689123583      5.40178740643182
  H   5.65915089719716     15.46447561192231      3.86422537696214
  C   7.80966470223290     15.22989283465428      3.73478218678102
  H   8.02246375679292     16.29711900300634      3.60184264123879
  H   7.77861017743954     14.76092380474621      2.74493069142835
  H   8.64152931602974     14.77116163371008      4.28675444558880
  N   6.93137702649072      9.20951503827274      7.49859623047400
  C   7.61048800771673      8.54745198919053      8.46244615737534
  H   8.64966181492696      8.33357811297918      8.23364865627477
  C   7.01591888571162      8.14891255736166      9.66041175341466
  H   7.60529295638166      7.62392251900117     10.40837339348556
  C   5.66112298247644      8.43291815996140      9.87386103823250
  H   5.16805613168487      8.13142275247409     10.79564765435019
  C   4.95575906250542      9.11543692784340      8.87472317706356
  H   3.90312885943693      9.35963569087498      8.99617635342687
  C   5.62601329620950      9.49146759930609      7.70969757688035
  H   5.13612147029645     10.04574042486191      6.91543233226906
  O   8.75974550114909     10.35756268139466      4.19933922409005
  H   8.47396068997751      9.80722080691280      3.43893626639291
