142
Coordinates from ORCA-job CIJBUT-CH3OH_4_5_tpss_d4_lanl2dz_631gpol_Fe2.opt
  Fe  7.85025359252270      9.75264647588738      5.89366783366824
  N   9.15800925865107     11.05618337788840      6.84255575481118
  N   9.27952620207447      8.23015213759874      6.02983377021926
  N   6.67561857122331      8.53351711454635      4.66682940759454
  N   6.57748015215046     11.35712202028342      5.47306154724030
  C   8.67485952043174     12.19215948290651      7.45512703564871
  C   9.33071478465945     12.39676809148207      8.74031267203911
  C   10.27789072132368     11.38516784869503      8.85771637805299
  C   10.16504210691479     10.57816567359431      7.64974761550974
  C   10.95237750114835      9.46680359775815      7.24471440484792
  N   12.27577080609797      9.37739913398277      7.85102471144117
  C   13.18350292796500     10.37474008415239      7.62734431987869
  H   12.84491010912059     11.17801781237129      6.98265409520852
  C   14.44513303609027     10.32093604749323      8.20384344498328
  H   15.15376996840311     11.12043706614618      8.00512794474534
  C   14.78198836565358      9.23411082169738      9.02638484024865
  H   15.76510020387942      9.17878104179613      9.48870012225949
  C   13.83716614167848      8.21930561327605      9.24480445534896
  H   14.06127172685408      7.36480689970910      9.87760736262684
  C   12.58907835236813      8.30943314614267      8.64387191128133
  H   11.80706144364868      7.56785226191752      8.76117057270939
  C   10.60223300333582      8.44811084307395      6.33787181135867
  C   11.45887167126972      7.45772704343506      5.66977922200528
  C   10.60548269201116      6.59101302302250      5.01509842304482
  C   9.24432136525974      7.07820479625101      5.28222277936904
  C   8.00711762730889      6.51553724072106      4.90675004083117
  N   8.02438486460029      5.10263423098905      4.54682173776275
  C   8.39186864078974      4.17534128819711      5.48152719259768
  H   8.64950729065924      4.57227139916088      6.45689827221836
  C   8.41594875869800      2.82443239809649      5.16292372077767
  H   8.70459502842185      2.10458458359506      5.92409124677939
  C   8.06289310249696      2.41521504145011      3.86741396822311
  H   8.07809099722185      1.36075025782719      3.60070306886160
  C   7.68948469618519      3.38155982520279      2.91969229068079
  H   7.41599475969340      3.10288197315094      1.90557767137113
  C   7.67452178070788      4.72144412980593      3.28144501266037
  H   7.39820534549825      5.52603057420315      2.60934998075748
  C   6.74761889325261      7.16372426105593      4.82362926160000
  C   5.41669215547178      6.57686941929890      4.80405345881791
  C   4.53185311666172      7.62488225017532      4.56894607083783
  C   5.34419584889260      8.82943432216308      4.46635917574725
  C   4.93530044208620     10.15909367878301      4.17388446591926
  N   3.65740984592157     10.28896475298812      3.48217983912189
  C   3.51288118533875      9.75453344673498      2.23216436818024
  H   4.39299797163398      9.26793388953222      1.82693650925043
  C   2.30222989781402      9.85048068894592      1.55988554024324
  H   2.21346588602321      9.42476554643512      0.56402979264290
  C   1.21996171394541     10.49794370872312      2.17688547211215
  H   0.26331638988526     10.57833679357342      1.66531163607915
  C   1.38598333860657     11.04077927114742      3.46062365974620
  H   0.57013060188069     11.54569961248050      3.97088272483450
  C   2.61561183025489     10.92708862367376      4.09476036809918
  H   2.82487255174419     11.32084849033628      5.08281997538787
  C   5.60206109775262     11.35733281764969      4.50101883183385
  C   5.35975779212299     12.72392219326995      4.01810833280031
  C   6.15009884626709     13.55284453802608      4.79321447053672
  C   6.87343780727159     12.67602177645756      5.72566905402058
  N   7.65197402741951     14.39738243275701      7.26359315156013
  C   8.73689293612232     15.21893461890284      7.13838861260751
  H   9.61128230582617     14.77272399062150      6.67814816860903
  C   8.68001352804233     16.53290452187338      7.58244035968480
  H   9.55163459566612     17.17110876892720      7.46483309527994
  C   7.49809079692141     17.01148777982951      8.16998150907907
  H   7.43772268048437     18.03775346357695      8.52558840429822
  C   6.39550534339868     16.15172080246334      8.29470626625756
  H   5.46685597969454     16.48605036541425      8.74928877376246
  C   6.49329999221436     14.84656154661257      7.83174972364773
  H   5.68958239842911     14.12139570305716      7.88983515317450
  C   7.73285196001778     13.01958109783038      6.79024149863122
  C   8.90947933582127     13.33519766276005      9.84415788769975
  H   8.80223282029211     14.36796165909831      9.49226770545384
  H   9.69411711385601     13.36896757833860     10.60874639882739
  C   7.58694797141825     12.87405465539052     10.50370400780677
  H   7.28061052530391     13.58291012157903     11.28201590043325
  H   7.70685989023224     11.88747539725906     10.96731397144425
  H   6.77698401921084     12.79405778192568      9.76469621601858
  C   11.06907287433222     11.06696993845159     10.10277714735197
  H   11.08900920888458     11.94926822778762     10.75272400410737
  H   12.12014712106381     10.85144018910608      9.87687563858221
  C   10.45397815532628      9.88496043306727     10.88838831972478
  H   11.04805792534168      9.67103384277731     11.78462953036365
  H   10.41112677274487      8.97424087946598     10.27435803200780
  H   9.42963790088368     10.11858690090987     11.20226003904413
  C   12.95693720621070      7.51344114504914      5.50100449306025
  H   13.30524679273419      6.56244413853924      5.08217191885409
  H   13.47768816706570      7.61557631368834      6.46055313186677
  C   13.38538724262755      8.66083136721982      4.55459282481697
  H   14.47774613691104      8.69434792552167      4.46861686163463
  H   13.03403064332761      9.63695799404294      4.91684656173037
  H   12.96739965008041      8.51236500578518      3.55206709484672
  C   11.01650513938831      5.53446427755312      4.01951992807857
  H   10.46379539348374      4.59823746898813      4.16173010770427
  H   12.06924853737244      5.27644473923585      4.18253397645177
  C   10.84185182160526      6.02151828213395      2.56120362409672
  H   11.12322710711239      5.22936651349162      1.85777863330725
  H   11.47539724529786      6.89424485993622      2.36502187614695
  H   9.80199861774358      6.31411725405139      2.35704249427802
  C   5.03040787933698      5.17612305799612      5.21241765177476
  H   5.60241103115010      4.41484648978064      4.66892096206036
  H   3.98287228536140      4.99845748357455      4.94372833096875
  C   5.19893292740159      4.95992764048654      6.73561171665284
  H   4.93569896020616      3.93050689233004      7.00561922966579
  H   4.54760315889760      5.63843942579197      7.29939143385494
  H   6.23229354488607      5.15168304944098      7.05783954530410
  C   3.02789204547006      7.52978553715575      4.65556458100800
  H   2.72618407184935      6.48466067990860      4.52044404056382
  H   2.53391208312508      8.07983383572152      3.84611322300867
  C   2.49618705093159      8.02921889115720      6.01970122096441
  H   1.40344392295681      7.94772394035271      6.05640212681854
  H   2.77246642408787      9.07823936616187      6.19696922496986
  H   2.91304117167808      7.43469708008318      6.84131724797157
  C   4.60650896717031     13.13327716806378      2.77611087249859
  H   4.48609750175175     14.22265199238369      2.77289041636579
  H   3.58772621395688     12.72913351639851      2.76048564930901
  C   5.34904017824616     12.71098573522634      1.48582088706542
  H   4.77127028323012     13.00222438623265      0.60089631080654
  H   5.51217980444945     11.62439902894130      1.44933662920135
  H   6.32999499161882     13.19757928520438      1.42613051059947
  C   6.38835408526318     15.02202232822338      4.54401642419085
  H   6.36613473169316     15.60358792501402      5.47280822983860
  H   5.56858139317526     15.42009775816843      3.93482006662126
  C   7.72493725950262     15.27401988056405      3.80671882746663
  H   7.88478098415803     16.34889230197362      3.66245052932479
  H   7.72038265575170     14.79570853764042      2.81997351105588
  H   8.57813211604089     14.86897574438711      4.36905168445560
  N   6.82230536112798      9.20169221262240      7.73966446974788
  C   7.40899059560745      8.37886275381639      8.63849873065660
  H   8.39036052359397      8.00735904334258      8.35192259840737
  C   6.80186764051245      8.02314881268807      9.84436113348490
  H   7.31323862637924      7.36151507182975     10.53963453253635
  C   5.52725776739128      8.52865664736991     10.13318519362749
  H   5.02440891870278      8.26678982791122     11.06184221648416
  C   4.91287506015174      9.37788804874925      9.20295075482036
  H   3.92415533066937      9.79078074406508      9.38928177960922
  C   5.59527279002424      9.69237486464296      8.02651370913905
  H   5.17571223827553     10.35733035965272      7.27487930260351
  O   8.99279265661245     10.19169904357636      3.94908753448833
  C   9.27308920725206     11.53384054257369      3.48375166400244
  H   10.01580923781453     11.50691303926304      2.67768053544893
  H   8.36177949997841     12.03875852121089      3.13874925363258
  H   9.68084567645015     12.05994421029650      4.35025136761997
  H   8.48884893635240      9.71017517404503      3.26237144949694
