142
Coordinates from ORCA-job CIJBUT-CH3OH_4_1_tpss_d4_lanl2dz_631gpol_Fe2.opt
  Fe  7.86122408386723      9.77215638691013      5.84152300592414
  N   9.00579002412649     10.94925494962050      6.92554648270820
  N   9.21869069873786      8.35203671638701      5.94265551764172
  N   6.62395931920959      8.55438808349493      4.91105599713193
  N   6.66857050867300     11.28520024730552      5.43732710354116
  C   8.57816327448011     12.12038646970936      7.52604004317990
  C   9.30272348928648     12.36658977794295      8.77061528112407
  C   10.27605359882347     11.38815463111956      8.84611943822701
  C   10.10351592385379     10.55185804808524      7.66116412839285
  C   10.92260243439836      9.51077860304305      7.19093494073742
  N   12.26359132449299      9.42229168474387      7.75877436155036
  C   13.16589539136284     10.41454265099545      7.50102738803370
  H   12.80787981976054     11.21890225429996      6.86852832645273
  C   14.44553369350752     10.36003267536523      8.03720754206734
  H   15.15008453932644     11.15626090728083      7.81256490605809
  C   14.80283883161580      9.27799233021513      8.85701433976458
  H   15.79969057939532      9.22185481878658      9.28891929024821
  C   13.86138166874769      8.26896213088084      9.11291851951201
  H   14.10206807353822      7.41800673245794      9.74437562805507
  C   12.59624591688707      8.35895597099375      8.54804671037597
  H   11.81786537404958      7.61755933177173      8.68835676257655
  C   10.55654432896820      8.54234573020017      6.24635394682555
  C   11.39135694274144      7.53297070843135      5.59854226857267
  C   10.52006589627966      6.64397954928862      5.00031914645998
  C   9.17430791215158      7.14829140146901      5.27222468546736
  C   7.93858465664895      6.53839172976056      5.00866198291169
  N   7.96288348820493      5.11627139887074      4.68395918530843
  C   8.31197434657320      4.21407807530673      5.64744338070870
  H   8.54542956317701      4.63429520165537      6.61918810588264
  C   8.35467368699376      2.85668887306603      5.35799948396484
  H   8.62835373944405      2.15456307799111      6.14086555581365
  C   8.04333816153675      2.41950633312461      4.06086543472163
  H   8.07644376723417      1.36016186016127      3.81574512356243
  C   7.68898581922726      3.36241853229031      3.08326618604281
  H   7.44585160008011      3.06063086302374      2.06808278246039
  C   7.65085879433194      4.70929802987695      3.41849740863112
  H   7.38352030725312      5.49856291759735      2.72508519991851
  C   6.69058788998099      7.17544751485154      4.98621605964392
  C   5.36273923362218      6.57986341258339      4.87319507078530
  C   4.49771781517277      7.62006396253304      4.58844115073591
  C   5.31432782783819      8.83078638949682      4.56664241080080
  C   4.95628990425562     10.13358011908971      4.18186640194916
  N   3.69827992870958     10.28284276137343      3.45706878099888
  C   3.58800879257202      9.77575843297338      2.19379954381952
  H   4.47456374175374      9.28647047230683      1.80623112243377
  C   2.39813292206131      9.89566633048622      1.48801141022984
  H   2.33459789856757      9.49100888669843      0.48149734468308
  C   1.30298016947260     10.53586690159845      2.08885273533684
  H   0.36187046103902     10.63385877913456      1.55203704067369
  C   1.43452273592129     11.04937228244736      3.38869634119887
  H   0.60746632234490     11.54922035978934      3.88565748069692
  C   2.64591080488704     10.91602149091776      4.05362655549043
  H   2.83309827342513     11.29500198240384      5.05183225350799
  C   5.67796126658920     11.30472007456043      4.46462701823366
  C   5.42926874290428     12.66648799616016      4.00065811613881
  C   6.18515771143878     13.49296868593685      4.81252580617033
  C   6.90247149458623     12.61505928549286      5.73401211768895
  N   7.55030966593315     14.32613438082682      7.34520920371034
  C   8.60034523876347     15.18894637563219      7.21566727881227
  H   9.49114419104120     14.77652092476221      6.75562723855862
  C   8.49206651776885     16.50056245390059      7.65846931799739
  H   9.33658843854797     17.17362165100137      7.53771234508374
  C   7.29435422410158     16.92996777031161      8.25137517571307
  H   7.19323654768962     17.95345414124331      8.60589055816128
  C   6.22869714009948     16.02580476376677      8.38329866292573
  H   5.28943018065841     16.32236626626984      8.84220071510775
  C   6.37731101566969     14.72590259799753      7.91819459101440
  H   5.60267072410379     13.96944049439633      7.97351669553483
  C   7.67669512850307     12.95737839313129      6.85537760194956
  C   8.91921668553138     13.31484401454720      9.88038893597588
  H   8.80171207047214     14.34700749104212      9.52982196169864
  H   9.73182568233796     13.34960180267483     10.61483935868878
  C   7.62263725013251     12.86012711233672     10.59265613934378
  H   7.35641567607317     13.56633523564667     11.38787936179321
  H   7.75416881814021     11.86939469267545     11.04402840091561
  H   6.77921987667278     12.79262829636932      9.89103415592380
  C   11.15182910111716     11.10949945384415     10.04357026980452
  H   11.19322862553531     12.00553645600146     10.67334603781500
  H   12.19228144253053     10.90969912170094      9.76163912817190
  C   10.60696232359547      9.93418791483738     10.88835868572401
  H   11.25360265853785      9.75161904204226     11.75463019856681
  H   10.54879333340891      9.00846883219940     10.29815996069833
  H   9.59713209384933     10.15662467640052     11.25316721585355
  C   12.88694099755320      7.57395360036433      5.39828777876407
  H   13.21410012283236      6.61695456400880      4.97637339794635
  H   13.43345131319030      7.67486504573946      6.34363271410233
  C   13.30664507497242      8.70982477707775      4.43551929243984
  H   14.39504593075674      8.71620658281088      4.30413990054672
  H   12.99959735254071      9.69487935159975      4.81486492572689
  H   12.84359376869730      8.57531654158540      3.45075485076696
  C   10.90949087617401      5.53520068826279      4.05336895456670
  H   10.34114949339032      4.61591145209432      4.23558908602513
  H   11.95687889532626      5.26386140597637      4.22935930595946
  C   10.74509858973977      5.96362985847604      2.57573245562127
  H   10.99493476046266      5.13245011286996      1.90586713062126
  H   11.40807642344308      6.80431263619622      2.33974693008682
  H   9.71592829999656      6.28641482962515      2.36413137748965
  C   4.96111672346330      5.17291726118033      5.24374600015161
  H   5.54814814209652      4.41516748790766      4.71134207908126
  H   3.92307483526143      5.00427736740092      4.93567342803126
  C   5.07503608528820      4.93685411625808      6.76926083679898
  H   4.79227863338498      3.90740846422648      7.01868825168280
  H   4.41221166009894      5.61691152842375      7.31789247462711
  H   6.09877668410787      5.11367852935738      7.12811898366761
  C   2.99167645912612      7.52361280479861      4.55732626546108
  H   2.70507185584803      6.47865921297944      4.39200895934798
  H   2.55743155757502      8.07682759703108      3.71649057365787
  C   2.35654879542919      8.00944394749086      5.88130840430302
  H   1.26453309138718      7.92234355952333      5.83760981605360
  H   2.61159555064672      9.05900181089060      6.08664911347232
  H   2.71557193397988      7.41011199062589      6.72636579231248
  C   4.70158178952479     13.08436193640747      2.74547895995492
  H   4.58755376070937     14.17426209552948      2.74525121152655
  H   3.68083877326077     12.68681449276830      2.70263761438954
  C   5.47234439263274     12.66554574984275      1.47112489673178
  H   4.92845828362123     12.98053877549420      0.57296952415704
  H   5.61167072979949     11.57561516154927      1.42309056057370
  H   6.46528970338710     13.13083174347658      1.44793097220287
  C   6.39095429271746     14.97432150883560      4.60511981049693
  H   6.34766068387273     15.53278710730986      5.54703143819183
  H   5.56638026500897     15.36846603867502      3.99989897381751
  C   7.72621945947957     15.27508032057797      3.88494265414296
  H   7.86138770472351     16.35603930341721      3.76149685728026
  H   7.74440684945713     14.81446329255389      2.88986953293629
  H   8.58398960584631     14.88221267719775      4.44983885361125
  N   6.96347668648677      9.28545567495664      7.50734754203472
  C   7.61762130763317      8.59940952047806      8.47785268685431
  H   8.64382088328805      8.33487764900738      8.24929278184643
  C   7.01381488059108      8.24516528921559      9.68386521034904
  H   7.58612541654003      7.69762949490215     10.42883324989962
  C   5.67842283227409      8.59823151707126      9.91177489109402
  H   5.18139625825252      8.33284665797378     10.84214478038763
  C   4.99948723405992      9.30040544160037      8.90868085382990
  H   3.96096559607180      9.59702949268559      9.03490728907747
  C   5.67001287995540      9.62714443286232      7.73040865175967
  H   5.19019498973914     10.18127060958135      6.93179963587379
  O   8.78542443166107     10.18219208459441      4.03477603943801
  C   9.63321876099354     11.35811588722740      3.90009253756172
  H   9.98689335333639     11.42401004471925      2.86575074181756
  H   9.09063738585992     12.26553317311165      4.18807849370033
  H   10.47333374747760     11.19232705136497      4.57534968081401
  H   8.04447298802417     10.25991849031336      3.39934444702025
