136
Coordinates from ORCA-job CIJBUT_4_3_tpss_d4_lanl2dz_631gpol_Fe2.opt
  Fe  7.88961526247070      9.79914612903625      5.75072961334841
  N   9.07764021713267     10.98663382483799      6.77297657043400
  N   9.30149315456371      8.41819692677943      5.76249268248705
  N   6.68860432728040      8.60627920129963      4.75208880243499
  N   6.71900477199557     11.32028102263062      5.29077324280600
  C   8.65775681027736     12.16793684656526      7.35613177217472
  C   9.38688502954755     12.42210193566192      8.59228657012259
  C   10.35388492851848     11.43191414920547      8.68288244238971
  C   10.17647927446370     10.58880245263350      7.51202995358178
  C   11.00271644838814      9.55491950027500      7.03617112685199
  N   12.34533119307589      9.47379882048765      7.59827157868422
  C   13.24501828336737     10.46379947671330      7.32113355936054
  H   12.88378445545757     11.25794960594890      6.67730966496860
  C   14.52773368468657     10.41622879834598      7.85088845330912
  H   15.23078292330145     11.20955559443830      7.61164531696602
  C   14.89053666284638      9.34447821880250      8.68183021896930
  H   15.89018822091576      9.29406922802087      9.10798320890605
  C   13.95155398948566      8.33769272374934      8.95623317984800
  H   14.19727603279086      7.49457850041470      9.59622552067910
  C   12.68272427520302      8.42011686033925      8.39886424849699
  H   11.90546507025984      7.68050060114953      8.55424386705000
  C   10.64179633820727      8.60183072814447      6.07566838544401
  C   11.47716402897352      7.59915609278713      5.42503035073818
  C   10.60665664070120      6.71443944029732      4.81450816257374
  C   9.25879021985722      7.21159438435387      5.08482149162216
  C   8.02642675388624      6.59921543871529      4.82055144352929
  N   8.05546603488284      5.18370459583953      4.46727974210200
  C   8.39178155367474      4.26224118503861      5.41708915886839
  H   8.61593465852261      4.66209353993717      6.39955411922364
  C   8.43252586540239      2.91061827890779      5.10133322462137
  H   8.69543904488696      2.19203261547573      5.87286997297438
  C   8.13338638601325      2.50036582647314      3.79243952814283
  H   8.16520955838408      1.44585663362588      3.52696956206300
  C   7.79293827891766      3.46341003692319      2.82939152613539
  H   7.56004155270136      3.18226107662520      1.80587952221575
  C   7.75528163455538      4.80371185194441      3.19030672017057
  H   7.49783999226875      5.60734400979417      2.50959649401789
  C   6.77088697946864      7.22742296531268      4.81186860667716
  C   5.44951147130714      6.62519146575257      4.69800531710881
  C   4.57041268468623      7.66430154197891      4.43151839763494
  C   5.37356092792476      8.87591831216225      4.41856724437727
  C   5.00498581916695     10.17796778980639      4.03682283609714
  N   3.75571510969098     10.31992518019239      3.29872558041993
  C   3.66930465338867      9.82162167827691      2.02965616885543
  H   4.56727537897643      9.34673527722718      1.65026259902014
  C   2.48866652521994      9.93768263368161      1.30795927957385
  H   2.44336457287976      9.54106052099792      0.29726379934060
  C   1.38017701617406     10.56599909342870      1.89702157238197
  H   0.44672772819391     10.66176643957223      1.34658254579732
  C   1.48838738452793     11.07136121017194      3.20233619968925
  H   0.65061297500890     11.56278247884466      3.68968544383399
  C   2.69023090783143     10.94140283558782      3.88478014827751
  H   2.85880075569336     11.31358178736884      4.88885655714533
  C   5.73011756222662     11.34351207758755      4.31558244508498
  C   5.49682066372667     12.69967731656138      3.83407199043003
  C   6.27011404984341     13.52608365032812      4.62958091426595
  C   6.97655712413357     12.65291979518267      5.56541810688445
  N   7.67191862727193     14.38722731028745      7.13111481759255
  C   8.73819779298890     15.22242406359781      6.95666306770822
  H   9.60852550497923     14.78032750972277      6.48484614089848
  C   8.66776192643163     16.54639139661410      7.36944157986230
  H   9.52320835030291     17.19794861413328      7.21275330830399
  C   7.49321393079815     17.01609696706472      7.97817994499385
  H   7.42224346015510     18.04994391057091      8.30928318156679
  C   6.41122578564884     16.13941247227629      8.15621075102042
  H   5.48917741820307     16.46815458884574      8.62796013183930
  C   6.52056649763959     14.82583259402437      7.71956063837402
  H   5.73074333951952     14.08881445990905      7.81167990240312
  C   7.75980557144190     13.00417481340311      6.67378700541207
  C   9.02509503269397     13.39789005222886      9.68410330354730
  H   8.90861382464691     14.42057021026507      9.30733319161505
  H   9.84704945266956     13.44529329608884     10.40714598701150
  C   7.73347338832229     12.96847215852592     10.42187632533092
  H   7.48368238823656     13.69585261294665     11.20313035513189
  H   7.86275481537573     11.98795035498531     10.89542186862606
  H   6.88206410036936     12.89235589551980      9.73114489963598
  C   11.23348629158556     11.16795526698680      9.88099837194179
  H   11.27766544902547     12.07165575283816     10.49949035997259
  H   12.27274007029612     10.96457329603959      9.59709545234687
  C   10.69092875470514     10.00290566681684     10.74154637179068
  H   11.33557891612657      9.83715820796292     11.61271051011076
  H   10.64051643366420      9.06842315624173     10.16475320244259
  H   9.67829643799231     10.22465597853862     11.09919214383722
  C   12.97453657359891      7.63607118378326      5.23729196392496
  H   13.30374085989773      6.67630811583099      4.82342478912150
  H   13.51049538282928      7.73946397480521      6.18818949578485
  C   13.40447599759517      8.76804858899215      4.27388236762306
  H   14.49568956544448      8.78511742046851      4.17053152224893
  H   13.07370891492049      9.75235326979434      4.63351984854224
  H   12.96921761351479      8.61857895806888      3.27889336192111
  C   11.00526527467652      5.61135794592174      3.86566739202784
  H   10.43078526357226      4.69353350861548      4.03354541959059
  H   12.04938557511845      5.33622959504100      4.05356004770899
  C   10.86102815357569      6.05200279214739      2.38875916793281
  H   11.11845323716022      5.22402113633411      1.71806090561855
  H   11.52872473243915      6.89238719717981      2.16669409421262
  H   9.83547385845407      6.37786836841653      2.16597185742946
  C   5.05828162998750      5.21088211682785      5.04712572616040
  H   5.65700822667411      4.46634459877982      4.50949560389540
  H   4.02380752460577      5.03664164944280      4.73077308627869
  C   5.16556040859821      4.95805622518172      6.57119304455483
  H   4.88708628135109      3.92403749398342      6.80520261360051
  H   4.49611788920487      5.62729391781245      7.12479895687821
  H   6.18652325067849      5.13701836126400      6.93630207849077
  C   3.06510511649048      7.55554575917987      4.40179055059146
  H   2.78634203779655      6.50953388303048      4.23033042931478
  H   2.62737091728332      8.11079747937412      3.56406286209398
  C   2.42824717008891      8.02990898317529      5.72898407603967
  H   1.33739366620999      7.92935390347601      5.68737156093296
  H   2.67075132275797      9.08203330259680      5.93592830606900
  H   2.79670879835149      7.43345258794480      6.57202767202611
  C   4.76283750046677     13.11290777614953      2.58116949236662
  H   4.64725257352891     14.20265930203037      2.58006047221841
  H   3.74207337810546     12.71457290398954      2.54833683668882
  C   5.52574673609413     12.69125220771172      1.30267643572105
  H   4.96659093008507     12.99411688682889      0.40973017291001
  H   5.68026903794905     11.60393980533056      1.26365270610097
  H   6.51333099245032     13.16520021253490      1.26509260998385
  C   6.49634147781827     14.99927456402073      4.39539852781666
  H   6.47517753179374     15.57260445466954      5.32888861242482
  H   5.67005958822299     15.39617083402769      3.79453108026661
  C   7.82757094304636     15.26256815737306      3.65129838099335
  H   7.98149356640848     16.33969797001693      3.51750477481198
  H   7.81945315218608     14.79271573671939      2.66115448125917
  H   8.68462481562453     14.85267980291845      4.20348964157414
  N   6.88079502159951      9.21528240798948      7.63071331278624
  C   7.53872203107753      8.51610313397257      8.57931170498358
  H   8.56862516216511      8.26053416233231      8.33728136857941
  C   6.94713674756068      8.13911596814019      9.78689672231902
  H   7.51538364698442      7.57573790615372     10.52348036894247
  C   5.61367158681126      8.49948787293848     10.02411235891242
  H   5.12166302528711      8.22155384789181     10.95375409104593
  C   4.92576267116880      9.22427889598670      9.04156105159045
  H   3.89022955450023      9.52325432680947      9.18783036771120
  C   5.59687423612499      9.56074168883794      7.86393892495583
  H   5.11561144103839     10.12737604847909      7.06908713789722
