50
Coordinates from ORCA-job CUSVOC-OH_1_1_tpss_d4_lanl2dz_631gpol_Mn2.opt
  Mn  4.76712432456947      7.31085800531833     11.15812704526862
  N   6.19949867765795      5.99995078121908     10.67400898639094
  N   6.36125748665885      8.07382505144549     12.25169725713179
  N   3.42552692206127      8.66182810593722     11.70551183046716
  N   4.19759667871708      6.52317875132670     12.93830932279808
  N   5.40357485660905      8.44328410296060      9.77806976921118
  O   3.61398620735495      6.26917865470512     10.25822829128600
  O   10.93427157812078      5.28571649506387     10.98976942719418
  O   11.10011996504943      7.47868476584277     12.69159973613155
  O   0.54949583001055      9.83893387185338     15.37289674709046
  O   1.38827739606994      7.54091226385952     16.69425671396719
  S   7.81013268849506      9.42167140967429      8.69198263804761
  C   6.04277502216891      4.97428092719818      9.80695630410087
  H   5.02249790992810      4.82221354924054      9.46483797010939
  C   7.12422790451394      4.19143830792887      9.38516048763987
  H   6.95068726465211      3.37810146161711      8.68548415002853
  C   8.40844343863310      4.47355651203492      9.86015652001035
  H   9.27877774435698      3.89715972084863      9.55421464900910
  C   8.57925872458839      5.54446712357528     10.75032264932339
  C   7.44830426458103      6.28594437828941     11.12731098472356
  C   7.53594932531055      7.43780087437238     12.01096251532938
  C   8.75831479998922      7.87554389068655     12.54719939070895
  C   8.76199355126218      9.01719282520032     13.36035705002212
  H   9.70460479851619      9.36793578079168     13.77490889160094
  C   7.55257822594519      9.67603710852262     13.60105660110674
  H   7.51098777087168     10.57078363225603     14.21650333469462
  C   6.37751999853091      9.17583454392858     13.02909002527945
  H   5.41991483419005      9.66625175756750     13.18098981461563
  C   9.92548804287655      5.91292112257224     11.27820924381366
  C   10.01983339399766      7.14093139648061     12.23020892146030
  C   3.03552277402556      9.73954045324958     10.97890595142600
  H   3.51624366409532      9.83759382206958     10.00968726812335
  C   2.09545782764048     10.65740011557497     11.46002164649668
  H   1.81737094155705     11.50484077137577     10.83885701289967
  C   1.53098831783834     10.47611807306846     12.72854319957555
  H   0.79978353508388     11.16790924935313     13.14091621453082
  C   1.92022726534289      9.36033609294703     13.48464587024744
  C   2.86126789926857      8.47611133332196     12.93332331643998
  C   3.29926869186112      7.27832201740957     13.62338872683330
  C   2.81002882793042      6.91594880611889     14.88935097361420
  C   3.26030554853877      5.71656868255005     15.45890686110941
  H   2.88848664362779      5.42293786549350     16.43825584423899
  C   4.17032532419260      4.92983098164192     14.74289932368593
  H   4.53563566428074      3.98816664917678     15.14404135152919
  C   4.61739931709115      5.36488160868651     13.49010897994335
  H   5.32261470422501      4.78804263945075     12.89879139379993
  C   1.35646914242795      9.09081742826983     14.84124880153567
  C   1.82638791310259      7.80109862721139     15.58350260422025
  C   6.43944976057272      8.85367858763157      9.30747928205991
  H   2.67092661100921      6.49268902307974     10.41151810912681
