49
Coordinates from ORCA-job CUSVOC-oxo_1_4_tpss_d4_lanl2dz_631gpol_Mn2.opt
  Mn  4.75389421594342      7.39837341797572     11.17182853462515
  N   6.17540656485065      6.05131338923343     10.75055221096239
  N   6.44520974395095      8.21149981125603     12.26500152954307
  N   3.45975132290447      8.79672313706126     11.80637041130778
  N   4.18823272721360      6.55217032570146     12.96267760610310
  N   5.37339901450965      8.45103657835357      9.73357326835013
  O   3.57949503042908      6.53286514385258     10.37758986395767
  O   10.88589176355707      5.22436610778585     10.94905326710339
  O   11.18401464557837      7.50558540145847     12.51435554830792
  O   0.32872965906681      9.69326833057380     15.32018432064790
  O   1.11167844375936      7.32780326468095     16.55792290402820
  S   7.84334046228525      9.13083615218357      8.56746196813403
  C   5.95738404365849      4.99094551625183      9.94204086272224
  H   4.92054333516467      4.86451189879777      9.63781128376965
  C   7.00412445712469      4.15759782446050      9.53139513259216
  H   6.79159701928814      3.31486232376731      8.87903220705747
  C   8.30613101969092      4.43626006711633      9.95618605816022
  H   9.15445862754041      3.82467674735394      9.65597521508831
  C   8.53385676484220      5.54796944918050     10.78333714382310
  C   7.43784067653750      6.33999493879287     11.16071202709007
  C   7.58731491059067      7.53200701249665     11.99473006660871
  C   8.84653684669632      7.94960128166372     12.45778396636259
  C   8.92088891789558      9.12018830016897     13.22754087875721
  H   9.89236825040234      9.45539340667622     13.58418716096714
  C   7.74525016470193      9.82225753661132     13.50263361357460
  H   7.75854576307409     10.73719913125621     14.08916572262521
  C   6.53101893018526      9.33493981081433     13.00191722699190
  H   5.59451849672594      9.85629195773614     13.18373583817396
  C   9.91071772418374      5.90052022677808     11.24174632749072
  C   10.07614082557773      7.17185608164167     12.12054885563838
  C   3.11257314500004      9.90722603632989     11.12265423104787
  H   3.64130089016614     10.05908368857327     10.18586511338154
  C   2.12972294192766     10.78504395473835     11.59832444925849
  H   1.87736089049213     11.66709218059920     11.01584610175802
  C   1.48748996870011     10.50725126341734     12.80762377247362
  H   0.71720095083118     11.15810475331858     13.21592712421324
  C   1.84006158686827      9.34535294707564     13.51381483337453
  C   2.82930416579186      8.50947164598014     12.97359718354927
  C   3.23728002872949      7.26696391271237     13.61697095110154
  C   2.66735963939994      6.83493869650553     14.82530338542077
  C   3.09771294114884      5.61571323003730     15.37099881657737
  H   2.65852919126461      5.27061398197073     16.30457042948750
  C   4.07305471546971      4.88155865148543     14.69183446653557
  H   4.43027636263044      3.92929958861227     15.07493476661377
  C   4.59282328434614      5.38124016741931     13.49099491567713
  H   5.34287546097969      4.83737469923102     12.92443572977125
  C   1.18202186793011      8.98636475715076     14.80514385202648
  C   1.61964340812833      7.66188107024991     15.49808358192217
  C   6.43282819226513      8.74891020291095      9.23122527524384
