50
Coordinates from ORCA-job CUSVOC-OH_1_5_tpss_d4_lanl2dz_631gpol_Mn2.opt
  Mn  4.79452369574847      7.38074211569573     11.07576959576010
  N   6.32226124588489      5.84703453481155     10.72249379170110
  N   6.45781242474275      8.09438739454736     12.14683015385406
  N   3.39406686969215      8.90636836853329     11.88693435373468
  N   4.06766267596154      6.56013976883672     12.96798043784171
  N   5.41083108876632      8.54129976592969      9.61350401429793
  O   3.55034014097956      6.49929911735094     10.12474670467914
  O   11.08775588837957      5.36370815445950     10.89371330450936
  O   11.20318032652653      7.57767499550337     12.57272293017234
  O   0.26894513454992      9.72338498827233     15.42587418928090
  O   1.09689943604909      7.36143896826687     16.64231344654376
  S   8.02915238906115      8.65510978606870      8.56986824178685
  C   6.19077039128037      4.80324137328905      9.87876603546398
  H   5.17073009014584      4.58824844634975      9.56854015187039
  C   7.29344102356276      4.06545875958010      9.42864755765798
  H   7.14432235439828      3.23151498429540      8.74782460066766
  C   8.57154159103332      4.41903655414237      9.86993198680427
  H   9.46091223206038      3.87553370770208      9.55833621281841
  C   8.71773742049359      5.52341872374384     10.72416287538863
  C   7.56281125589819      6.22503074890579     11.10975926399296
  C   7.63015245056222      7.43857678761013     11.92867905866784
  C   8.85329361063164      7.91427412652578     12.43281634700695
  C   8.86112818157775      9.08736108792032     13.19920396910156
  H   9.80864027634396      9.45619641558737     13.58610893928327
  C   7.65388186116721      9.75294886621437     13.42568865299656
  H   7.61364279944538     10.67150686897584     14.00494313587630
  C   6.47991776616943      9.23108166034429     12.87531635740290
  H   5.52426347160849      9.73105930302934     12.99952886619847
  C   10.06256166024512      5.95574101244323     11.19909770925206
  C   10.13036092378246      7.20043586751332     12.12477520381402
  C   3.05023428053641     10.03655674638934     11.24030366197362
  H   3.59218911955742     10.22372952592537     10.31518560980192
  C   2.06362846255217     10.90379191565790     11.73395013266582
  H   1.81226850322791     11.80646447087014     11.18312700595340
  C   1.42411906380341     10.58710734901611     12.93466643540457
  H   0.65874242516906     11.22810051812990     13.36747594533263
  C   1.77312394524260      9.40175255402392     13.60649132448234
  C   2.76000931881594      8.58036375598233     13.03363983224249
  C   3.15795261680392      7.30370444960636     13.64652407040112
  C   2.60651047052027      6.87658802810260     14.86794752982493
  C   3.02728769548173      5.64924005593679     15.40473083251591
  H   2.60129237531408      5.31603982844348     16.34895229216211
  C   3.97371387982034      4.89376909413937     14.70880737125847
  H   4.32375427426049      3.93739725125539     15.08840260248290
  C   4.46575378283729      5.38380529635487     13.49246283465981
  H   5.19477863717848      4.83156192927286     12.90426156083519
  C   1.12343577602107      9.02802068166480     14.89608977131966
  C   1.57897327791534      7.70422165072100     15.57290352256973
  C   6.52383415543838      8.59373992294883      9.13940356944154
  H   2.82203726275496      6.15204172310967     10.68257600624474
