49
Coordinates from ORCA-job CUSVOC-oxo_1_2_tpss_d4_lanl2dz_631gpol_Mn2.opt
  Mn  4.72180883479272      7.30179013197993     11.15496405867309
  N   6.16587228680968      6.00431404988824     10.70231423983996
  N   6.38061412072063      8.09216988275378     12.29403946507323
  N   3.41963337683832      8.72949786657738     11.70860129339975
  N   4.23223231789538      6.59376270842304     12.99013849445774
  N   5.40900094832471      8.43272444794287      9.81346340092992
  O   3.58733895796636      6.38659596553933     10.47567454247489
  O   10.90619926346528      5.29363851588956     10.88691454021558
  O   11.13242662549732      7.50941964678114     12.55276245059419
  O   0.32273265103381      9.76084992813491     15.22211217352555
  O   1.20990555378542      7.50970919891434     16.59530151905406
  S   7.83952896407291      9.44881902733111      8.82168646366541
  C   5.98798780571322      4.95057032706520      9.87305903892856
  H   4.95979496145999      4.78371675231524      9.56336988897938
  C   7.05600063726864      4.15578192296203      9.44356315993051
  H   6.86258573729915      3.32128937916117      8.77474763144571
  C   8.35270364160452      4.45718221521829      9.87006789839381
  H   9.21640225244336      3.87634576027248      9.55401744448871
  C   8.54492532031588      5.55051974689907     10.72719369777084
  C   7.42485754107295      6.30114421525892     11.12249395325067
  C   7.54250897983951      7.45798186171264     12.00219213312958
  C   8.78444424022447      7.89151495904351     12.49821238745367
  C   8.81681059531429      9.02529397686262     13.32231989368164
  H   9.77469835776054      9.37233925086820     13.70378920073574
  C   7.61786442247884      9.67984190961723     13.61784726201702
  H   7.59904575008203     10.56717072580230     14.24504321747553
  C   6.42332702581282      9.18217321609378     13.08352633603510
  H   5.47004171170140      9.66760520698308     13.27689632038995
  C   9.90928836299304      5.92614895924779     11.20371850424878
  C   10.03647468694387      7.16330280122525     12.13617500739263
  C   3.04291817633339      9.79678621933663     10.97486523848902
  H   3.56411631773815      9.91329209106052     10.02878563429242
  C   2.04745080293179     10.68046261146107     11.41424779235849
  H   1.76942421796236     11.52395153272513     10.78795608005458
  C   1.42643153122914     10.45837964769483     12.64627315075135
  H   0.64917492236851     11.11677804527447     13.02852396533649
  C   1.81389469403185      9.34621917919475     13.41213538120359
  C   2.81147571528651      8.50214249238965     12.90008607973625
  C   3.26799094728861      7.31685869304537     13.61376558391873
  C   2.74414901926672      6.95085190294626     14.86391982460526
  C   3.23728418885182      5.79163109662492     15.48230395945225
  H   2.83466004857002      5.49757706787739     16.44931900198867
  C   4.22772339304092      5.04915202591867     14.83315769088158
  H   4.63186875048195      4.14191506330410     15.27419630329016
  C   4.70029705562497      5.48131276452287     13.58741509455292
  H   5.46115312891382      4.93291958922455     13.03983186119753
  C   1.18944755087755      9.05014152349769     14.73516922455738
  C   1.68308663642182      7.78777996162685     15.50363698341629
  C   6.45809697124849      8.85503393550921      9.38340553226472
