48
Coordinates from ORCA-job CUSVOC_1_4_tpss_d4_lanl2dz_631gpol_Mn2.opt
  Mn  4.84178049588777      7.61737834991389     11.01381640696801
  N   6.28397175357825      6.33767371978260     10.55635699830469
  N   6.47513261662753      8.41060609971324     12.19959556035755
  N   3.46724689121071      8.86200696293355     11.67294741782282
  N   4.26329410097340      6.58923819420511     12.66858058255110
  N   4.76144719698920      8.22016004661565      9.25261394893233
  O   10.65248659687054      4.82984063784302     11.85106310472556
  O   10.81593694525186      6.94745256554732     13.64894452158306
  O   0.94081644830553      9.83132067373819     15.65250241872727
  O   1.79458169239865      7.40843773085319     16.71929968574962
  S   5.43166717732621      8.13773886316142      6.52235649464456
  C   6.18730065377583      5.37550081177376      9.60282514742307
  H   5.26500344505812      5.36843752064560      9.02818883842009
  C   7.20826851472096      4.45362987755840      9.36788556921397
  H   7.08196640677863      3.70472265183461      8.59084329497962
  C   8.37484276017832      4.51201336831593     10.14109223695845
  H   9.19394778672849      3.80885330715894     10.00693973537208
  C   8.49878886115098      5.51983295450809     11.10673183494477
  C   7.44280505477592      6.43477221099551     11.27773770064382
  C   7.53800919195785      7.56084450711215     12.19354156784021
  C   8.67972635187892      7.77067163163091     12.99175294329585
  C   8.71880474177698      8.90209018403285     13.81920973958084
  H   9.59762568200603      9.07156571092114     14.43779999328122
  C   7.63103149968075      9.78173322818270     13.81565584851769
  H   7.62782154757543     10.67491047609538     14.43479725284074
  C   6.53337041751609      9.49928095255826     12.99465777679587
  H   5.66891304571701     10.15870343350150     12.96112407835175
  C   9.73472618370759      5.63292097875732     11.93989131401729
  C   9.82609445167235      6.81721816985127     12.94213959978677
  C   3.03138634435531      9.99440404446855     11.05878243517856
  H   3.41121933446819     10.14900023647056     10.05290808140576
  C   2.15697695518088     10.88456602758957     11.68201022704045
  H   1.83758814500967     11.77567045048874     11.14825278311014
  C   1.70382303743830     10.61912005754157     12.98461138388535
  H   1.02619663635329     11.29054515463743     13.50727363671703
  C   2.12916035339243      9.44893700587446     13.62301468268036
  C   3.00274122610811      8.58460473679930     12.93400143414398
  C   3.44413742342200      7.33040430069193     13.48356568489509
  C   3.03448477062403      6.88407373379421     14.75501985553320
  C   3.45942537120295      5.62564895861484     15.19398033525384
  H   3.14390997760400      5.27242362227274     16.17334169313579
  C   4.27218602391702      4.85437240589234     14.35029188580813
  H   4.61291665480061      3.86614635861265     14.64741088831441
  C   4.65371006183782      5.36711824071617     13.10951706347577
  H   5.28959102278784      4.79992973816503     12.43560523270900
  C   1.67062773999213      9.09784834895927     14.99951172347644
  C   2.14915096546060      7.74380283503136     15.59736326662580
  C   5.06205944396833      8.17952792363683      8.07894609397879
