54
Coordinates from ORCA-job CUSVOC-CH3OH_1_2_tpss_d4_lanl2dz_631gpol_Mn2.opt
  Mn  4.95748374374846      7.47124344678610     11.44478338045311
  N   6.26417648478086      6.07230677545499     10.93870100323233
  N   6.50121640544701      8.16346842217296     12.42880910748248
  N   3.65835209900395      8.86445682764120     11.96015802712716
  N   4.21926708481221      6.61924369716588     13.07773006841071
  N   5.57586436319529      8.47655030573969      9.93220917397933
  O   3.50543185789203      6.53670835246587     10.29581114065618
  O   11.04172603816766      5.67597708048068     10.56372032557937
  O   11.29514997899238      7.93523701650959     12.16608069859619
  O   0.45815396459111      9.90323010906602     15.40504811262772
  O   1.05030748294813      7.46736175831245     16.60294276227321
  S   7.91174528512506      9.30981027337257      8.58943062890709
  C   6.06539531017195      4.93766881622771     10.22380955573049
  H   5.02638347648894      4.66850123068892     10.05439151631635
  C   7.12145772118429      4.17202490228431      9.72329430712221
  H   6.90346477517813      3.27369011784967      9.15152619293485
  C   8.44248433735140      4.58346896351364      9.94762218414738
  H   9.29467511118390      4.03219484258951      9.55653325963475
  C   8.66554787395410      5.74043585865492     10.70246268469653
  C   7.55347738207453      6.44594491644110     11.19281689017648
  C   7.68580194504269      7.61621212011429     12.02493083559567
  C   8.93457426710835      8.13644567035382     12.40251783477182
  C   8.96650144644511      9.24723982580656     13.25376941250502
  H   9.92728769949135      9.66428155880863     13.54667202579650
  C   7.75304757371944      9.78598846198065     13.69962050269000
  H   7.73086694500201     10.64390751502243     14.36648191798060
  C   6.54833007225313      9.22672849762937     13.26487324678083
  H   5.58985041191678      9.63869025168926     13.56571631698479
  C   10.04362374005898      6.23795302241312     10.99210643497228
  C   10.18516779373026      7.50314932733401     11.88867765129350
  C   3.41462977354722     10.03584114450892     11.31237667543767
  H   4.00563752193785     10.18955754427176     10.41346483388146
  C   2.48818737925958     10.97005185636967     11.78142701496849
  H   2.33823729899019     11.89164897913993     11.22486171696526
  C   1.77074434100923     10.71261184780635     12.95929633461203
  H   1.04266721402579     11.41492381906139     13.35896859385016
  C   2.00747609933923      9.51088280290366     13.63842563875286
  C   2.95362593919281      8.61492799627520     13.10815881869753
  C   3.26856181088015      7.35489201738939     13.73416186018955
  C   2.64871053572123      6.92590615981570     14.92166098539012
  C   3.01388043121454      5.68510872998491     15.45692809555978
  H   2.54135871664745      5.34132800965005     16.37426688528475
  C   3.98488740718934      4.92613149773337     14.78679552477923
  H   4.30110333060564      3.95887847135661     15.16867369800026
  C   4.56283203800075      5.42081971026352     13.61596023211742
  H   5.32632439056982      4.86623913867675     13.07821990154067
  C   1.28834699210177      9.16137368265581     14.89851567373805
  C   1.62312926425157      7.79517520058441     15.57333960785378
  C   6.58175187056678      8.83245567851880      9.36277672518318
  C   3.40210162104958      6.82190354706168      8.85951054996579
  H   3.16677438220417      7.87752958168130      8.69731737350443
  H   4.38244149194050      6.59880728312816      8.43955520578205
  H   2.63398339361970      6.16618148594763      8.43674642508338
  H   2.62536408507532      6.68666385064457     10.69684442940638
