54
Coordinates from ORCA-job CUSVOC-CH3OH_1_6_tpss_d4_lanl2dz_631gpol_Mn2.opt
  Mn  4.97511050565506      7.56321121937371     11.21304638229680
  N   6.28321806138002      6.12944774690994     10.76353498775219
  N   6.49186271848810      8.32492609470915     12.20923652023904
  N   3.64921094475895      8.92508942982936     11.81359686096092
  N   4.38436253543068      6.63628919442679     12.89495754264447
  N   5.44844574141133      8.52066176637988      9.70884957744413
  O   3.46299676431814      6.53450963762819     10.24681843156874
  O   10.94078762832080      5.14404400113363     11.40378864667478
  O   11.15641602822239      7.48793193422484     12.98381833872377
  O   0.60697512743624      9.77505162885647     15.44431978387797
  O   1.43592242374190      7.34083228559147     16.62985153856040
  S   7.33300632400933      9.97785527067995      8.22169627823773
  C   6.11073756476878      5.03267173257029     10.00768799767880
  H   5.10404240250219      4.85803678514620      9.64036585829856
  C   7.17889441166569      4.15864128320959      9.72660556767919
  H   6.99948017857021      3.28189374882714      9.11008949067632
  C   8.44461689986466      4.42700278226624     10.24044673926067
  H   9.29115614787952      3.77343696525826     10.04321386408494
  C   8.64431779760032      5.57542477650120     11.04029744687920
  C   7.52353352310479      6.40416909693506     11.27151897001094
  C   7.63378925485815      7.58614321556503     12.05810533889458
  C   8.86547446113278      7.96072530100936     12.63856086249636
  C   8.88858547532386      9.15050608129005     13.40046826613345
  H   9.82538799297324      9.46267048485539     13.85594331181836
  C   7.72102368510355      9.89276893669723     13.54621402621564
  H   7.70925047516587     10.81327725606130     14.12348794748718
  C   6.53115707967176      9.45390835608197     12.93493808307790
  H   5.60470418001837     10.01228800635826     13.01800839940294
  C   9.96486404223226      5.88871494896883     11.60886389558098
  C   10.08105840482657      7.14979287315438     12.45767486392537
  C   3.31212434402427     10.08202505327690     11.21293325206523
  H   3.82194726210472     10.29779723392110     10.27863396045468
  C   2.36484510888541     10.95845987589427     11.77667036394492
  H   2.12616459257071     11.88227185236148     11.25630874719121
  C   1.75134905803595     10.63510254394242     12.98418567109955
  H   1.01674560537445     11.28972561425986     13.44732555130341
  C   2.08832649632644      9.42650739377138     13.63299119199877
  C   3.04797916115007      8.59767863677382     13.00408259691472
  C   3.45353824619799      7.36807100358425     13.59092739259322
  C   2.91587957385567      6.93935046274986     14.82891241394497
  C   3.38389812561888      5.71323744733229     15.34874823179061
  H   2.98724518372847      5.36484852561774     16.29974376368996
  C   4.33588146462499      4.98404584623685     14.64093179877954
  H   4.71480166629460      4.03862440537429     15.01960290342991
  C   4.81780777596410      5.47238330437874     13.41270190470007
  H   5.55613414353233      4.92930029946660     12.83185307819893
  C   1.46390216488987      9.04729046259334     14.91163266518461
  C   1.90757080898226      7.73492911592065     15.54798788519081
  C   6.27625139059361      9.14979240518979      9.08309254718846
  C   3.04765807943700      6.95991625861420      8.90312649696331
  H   2.71845144501941      8.00326532162565      8.92214588360034
  H   3.93096599275343      6.85586943543278      8.27365056198613
  H   2.24695553625404      6.29257748287930      8.57034141649316
  H   2.67275799334538      6.54496717830265     10.82696390271018
