103
Coordinates from ORCA-job BEQDAE-oxo_0_3_tpss_d4_lanl2dz_631gpol_Mn3.opt
  Mn  1.28287914525252      3.69993740853415     16.81343560456251
  O   -0.45988547311587      4.45196603065977     17.31307591514483
  P   -1.64764699517449      4.98321979366837     16.43226723250403
  O   -1.63269492569454      4.93822670339651     14.92957837927711
  C   -3.06795724623092      4.04838340747165     17.10631320589176
  C   -4.24038830443241      3.92669007744298     16.33702876944807
  C   -5.34424660080432      3.22272765651456     16.83586414974096
  C   -5.28097707657057      2.62763575493839     18.10443233871472
  C   -4.11000869498442      2.72803448380594     18.86880935066266
  C   -3.00836259489741      3.43535151624930     18.37301308379232
  H   -2.08700612485991      3.50292424073038     18.94816369392953
  H   -4.05311388626116      2.24631174614397     19.84430413699195
  H   -6.13760092558946      2.07627874960022     18.49087247452070
  H   -6.25032617238184      3.13430856958783     16.23680265041465
  H   -4.26860167845969      4.37710117046491     15.34589886920233
  C   -1.86371030690705      6.70478909773195     17.01135648192615
  C   -2.07337338240161      7.01514357987573     18.36818925211959
  C   -2.23823579218208      8.34513779535893     18.77257379631166
  C   -2.16925790202717      9.37927013918385     17.82636891766277
  C   -1.93704102288108      9.07960979554129     16.47757037714921
  C   -1.79573683607356      7.74703935929302     16.07043296363874
  H   -1.63080385839964      7.49277005373858     15.02480728921936
  H   -1.87440618024639      9.88341528025684     15.74469990687057
  H   -2.29203123984712     10.41510860581791     18.14143836960270
  H   -2.41920076176763      8.57725146849096     19.82206728519401
  H   -2.12177226720424      6.21337597456071     19.10394956055698
  O   2.77288535242915      3.18859792674854     16.43525465773720
  N   0.93756316158645      2.32594198213320     18.17563832032468
  C   -0.04901211068254      1.36333784002141     18.13136703906999
  C   -0.77907933494233      1.02560108957140     16.97681092169475
  C   -0.50713130265238      1.57965406518000     15.71218149522637
  N   0.35398513521237      2.62527262715374     15.46992822414226
  C   0.42468151360899      2.78077419032107     14.10410531974233
  C   0.91839191650169      3.91969428505014     13.45335567734019
  C   1.29307346616809      5.08838684568270     14.13589156012456
  N   1.41462040928609      5.19852621932498     15.49749825266310
  C   1.56633490227591      6.53655390795549     15.78278576230816
  C   1.88716077064969      7.05651657890154     17.04855716150287
  C   2.04752859891871      8.52427971148461     17.21356804198950
  C   2.98360249675707      9.25903397983053     16.45898604899226
  C   3.11594498914701     10.63935791599235     16.64481938764207
  C   2.31521142859126     11.30365826867532     17.58437916902875
  C   1.38745636026192     10.57828514140762     18.34373049510383
  C   1.25878356310202      9.19687560919768     18.16655605635103
  H   0.52550273808682      8.63365686449393     18.73852841777833
  H   0.75763564670522     11.08779727048508     19.07174963434743
  H   2.41718294195762     12.37881095542377     17.72555597639072
  H   3.85022806684600     11.19425451947448     16.06243309864461
  H   3.62017399271943      8.73799476091915     15.74573269186946
  C   2.18667805938184      6.24765902427846     18.16415273910879
  N   1.99700184605872      4.89143987105934     18.24918850993888
  C   2.60361067072786      4.46780991147825     19.40990416257984
  C   2.43334765180002      3.18149104339142     19.95621603909126
  C   1.53618166078643      2.23924990752119     19.41033683642448
  C   0.91324481938355      1.18174169399822     20.17007601312229
  C   -0.10204990956593      0.67821509080474     19.39904368011155
  H   -0.81599625305916     -0.09345159874425     19.65820826904579
  H   1.17611943231975      0.91493392848726     21.18625903880388
  C   3.08302929424106      2.82748549177478     21.24399781144603
  C   3.88542158509856      1.67005025119148     21.31091304110905
  C   4.50181487083146      1.30002743919972     22.51071698526911
  C   4.31578865701406      2.07301948766902     23.66485003624000
  C   3.50613368475521      3.21605711277984     23.61327231258244
  C   2.89311818124106      3.59153590947746     22.41304772675048
  H   2.24075818658289      4.46229114443167     22.37962780557782
  H   3.34247030467445      3.81051743448470     24.51109169764325
  H   4.79336630495886      1.78368233658995     24.59975451301002
  H   5.12854217186690      0.41003642977920     22.54370948861721
  H   4.02994929701712      1.07644309762511     20.40969413772908
  C   3.24853806916505      5.58909945052123     20.05227903074293
  C   2.94509226442717      6.69893558622128     19.30883775110782
  H   3.25221990986160      7.72312168765233     19.48020780137305
  H   3.83885812325126      5.53638066917216     20.95842364083330
  C   1.49970365088523      7.29758404702434     14.55555332608037
  C   1.39081459745333      6.39614810334899     13.53263373757588
  H   1.32515806229529      6.59363444930906     12.47016133279731
  H   1.54821444429969      8.37701303304077     14.49116595388291
  C   0.75477654398535      3.98670993906569     11.97302888278511
  C   -0.34279943410949      4.68895222455308     11.43867147813841
  C   -0.52724737809956      4.74667681035327     10.05266280146069
  C   0.37585958486042      4.10443753200550      9.19321166044873
  C   1.46276366944333      3.39720228340229      9.72377898777690
  C   1.65129297968904      3.33432969269356     11.11062194893998
  H   2.49454651412947      2.78691197047778     11.52932073136079
  H   2.16497262250106      2.89496098285647      9.05968168797509
  H   0.23038276620442      4.15117349177235      8.11476213584351
  H   -1.38012819405975      5.28684610006669      9.64347134235770
  H   -1.04472014022532      5.16027077882746     12.12504203621809
  C   -0.35902323425832      1.75446893728087     13.46167472836762
  C   -0.96480339470665      1.03536512788351     14.45523555762661
  H   -1.63932048749157      0.19423750900602     14.35702679834902
  H   -0.46883123935004      1.64441729735021     12.39009760312895
  C   -1.82731908855071     -0.02370128062636     17.05174787069920
  C   -3.14036915011414      0.29631557030182     16.65347678765722
  C   -4.15264927157370     -0.66600770320370     16.72018148699413
  C   -3.86647120346708     -1.96209441796408     17.16959982322077
  C   -2.55876234592499     -2.29343571813348     17.55133664146471
  C   -1.54466988888219     -1.33105273469161     17.49453891584556
  H   -0.52397577811784     -1.59307610573788     17.76872007321056
  H   -2.32581757146732     -3.30373374918327     17.88512393467213
  H   -4.65523067286425     -2.71168074174934     17.21823540507665
  H   -5.16606890692255     -0.39721797950139     16.42598451189977
  H   -3.36153453677321      1.30600113483796     16.31551528481782
