102
Coordinates from ORCA-job BEQDAE_0_3_tpss_d4_lanl2dz_631gpol_Mn3.opt
  Mn  1.02675278918639      3.99511699385234     16.66890040911461
  O   -0.52400767776613      4.90305750176572     16.93567867229432
  P   -2.03789969834339      4.40789723485849     16.80561110732183
  O   -2.48688226840897      3.51020529015722     15.68828705485280
  C   -2.41745713152165      3.68852140306740     18.43476764375297
  C   -3.32015620821316      2.61344819194534     18.52081025382415
  C   -3.66947999415074      2.08153481180085     19.76761465739359
  C   -3.11605798588312      2.61851321609022     20.93755240277907
  C   -2.20407219372490      3.68056301024163     20.86001647263134
  C   -1.85620985988332      4.21342246953787     19.61361541027239
  H   -1.13747123481637      5.02858415240653     19.54804730071424
  H   -1.75652756400262      4.08286284996864     21.76769650210563
  H   -3.38773885877794      2.20562204497447     21.90865703816825
  H   -4.36880290460068      1.24812066319027     19.82634872659082
  H   -3.73421891995508      2.19915284051752     17.60372833087191
  C   -2.88371483894852      6.01888658777770     16.74706375413108
  C   -2.31492701526637      7.18529103784749     17.29252632715208
  C   -3.00724617067928      8.39971213418832     17.22928376086034
  C   -4.26988040740280      8.45849553465609     16.62207891104439
  C   -4.83757945857019      7.30221119733155     16.06964118603294
  C   -4.14614347858764      6.08672101989907     16.12960644339227
  H   -4.56627580839905      5.18511876394190     15.68637082761817
  H   -5.81390113887965      7.35019506120895     15.58847683519756
  H   -4.80677717952557      9.40535749682258     16.57379458555400
  H   -2.56123929188261      9.30191174804769     17.64682617139166
  H   -1.32561160275020      7.13711822097312     17.74375759338609
  N   0.67087808351226      2.47058976558958     17.91812477026594
  C   -0.14541494407482      1.37665401216137     17.66004784432258
  C   -0.51518980304782      0.93296674431590     16.38725210641851
  C   -0.19472245085953      1.62514356974806     15.21491692044810
  N   0.38123063812965      2.88612632165364     15.16254074790741
  C   0.20808455570113      3.29883249131033     13.85014374496195
  C   0.46918345030047      4.58421720950522     13.36126488930482
  C   1.18609772995483      5.54232185311796     14.08659056703390
  N   1.73292085454748      5.33015400482779     15.34414106302945
  C   2.45305663161775      6.48036505227335     15.62216023259050
  C   3.17418673454957      6.71899811936923     16.80075896059270
  C   4.04826504353827      7.92234338490024     16.85540932167626
  C   5.08580425790412      8.08500566739275     15.91565614361550
  C   5.91291745667314      9.21272594983623     15.95433045125701
  C   5.71336313402468     10.19876734482663     16.93008225008034
  C   4.68056623935837     10.05070049611944     17.86580861586786
  C   3.85434426838829      8.92189777589256     17.82934257794918
  H   3.04190969687751      8.81302257020123     18.54621508626087
  H   4.51249609593784     10.81843030400017     18.61996479647278
  H   6.35631642521572     11.07726179560749     16.95970174298723
  H   6.71593578474786      9.31888326181979     15.22617009956529
  H   5.24309559606193      7.31350710134973     15.16337394386661
  C   3.07534479513610      5.89805015540594     17.93175607472923
  N   2.20628463203313      4.81869149034061     18.06867797377145
  C   2.32471847714274      4.43049893482995     19.39589439896872
  C   1.59327577489260      3.40543212765324     20.01364730974409
  C   0.79888767228402      2.50163332861953     19.30130918058782
  C   0.02119817447782      1.45173646147427     19.90531567196415
  C   -0.56271430252317      0.75344367344892     18.88764897998595
  H   -1.23488862418614     -0.09173975928033     18.95560048499658
  H   -0.08458616126736      1.29211922455363     20.97002093749450
  C   1.66464584671908      3.28733377189560     21.49478227620370
  C   2.11712864479877      2.10806875061954     22.11776440336017
  C   2.16347443763866      2.01262865076703     23.51323055454885
  C   1.75784585816728      3.09335728977716     24.30805631288884
  C   1.31087054535453      4.27400561049557     23.69914513973104
  C   1.26767848923374      4.37109785874565     22.30397840684234
  H   0.91767590383368      5.28492000671894     21.82596052461541
  H   0.99335972501655      5.11806361288883     24.31004769759199
  H   1.79327074444830      3.01733995702631     25.39384906214992
  H   2.52338014244657      1.09656086109993     23.97972213992309
  H   2.44447232372652      1.27365816629503     21.49948651554097
  C   3.32346378831965      5.21750833345010     20.06830587861193
  C   3.80499099344896      6.11390439659857     19.15334175968894
  H   4.58768909448452      6.85010458191565     19.28762052315422
  H   3.63532358330764      5.07514881133894     21.09572766590769
  C   2.33201962086327      7.42748734378799     14.54381867379820
  C   1.52169211286687      6.85486197242334     13.60171618167731
  H   1.18251501179820      7.27705654410375     12.66398652003017
  H   2.78278932157841      8.41213679512007     14.53062717351970
  C   -0.09661354277126      4.93861844909678     12.03230135424190
  C   -1.49493035027410      4.88018910872948     11.85893770378179
  C   -2.06657739092739      5.21274286977649     10.62625212999602
  C   -1.25230533442874      5.59957545117557      9.55254703485225
  C   0.13863801707364      5.65394622070610      9.71637523101593
  C   0.71453420254476      5.32738290140984     10.94986156786788
  H   1.79602094325267      5.35448335239578     11.07632791850680
  H   0.77618547702779      5.94370004373931      8.88204131874222
  H   -1.69858025943012      5.85554869912925      8.59250333285768
  H   -3.14825369588086      5.17285364327082     10.50479103185950
  H   -2.11595643969632      4.58513012708825     12.70406530021476
  C   -0.34291570932123      2.23611625525951     13.05312584138724
  C   -0.57642877169572      1.18854851577122     13.89914686972806
  H   -0.98567940351800      0.21383978097580     13.66520751495510
  H   -0.51639717482932      2.29085252274121     11.98567608517259
  C   -1.42168049831256     -0.24199707833376     16.27994194007952
  C   -2.71615825575456     -0.05480882467766     15.75262808663699
  C   -3.60283471872491     -1.13394333320271     15.66839319901324
  C   -3.20903159974734     -2.40752252466344     16.10323720566414
  C   -1.92300399132843     -2.59909477214433     16.62670147465119
  C   -1.03391856311513     -1.52138529257213     16.71773815536438
  H   -0.03163100236021     -1.66662990772611     17.11876787216452
  H   -1.61031011079148     -3.58804269290830     16.95966886647464
  H   -3.90015228181445     -3.24667222214299     16.03443440591405
  H   -4.60366407794573     -0.97992041997377     15.26661905338452
  H   -3.00786147057706      0.94552390207675     15.43451582851656
