104
Coordinates from ORCA-job BEQDAE-OH_0_2_tpss_d4_lanl2dz_631gpol_Mn3.opt
  Mn  1.18348137762633      3.69360793441466     16.80253473633834
  O   -0.45912206892630      4.49983293467927     17.31315964037418
  P   -1.68200797731494      4.98127758843163     16.44369035521708
  O   -1.70064061690954      4.85826889808384     14.94612989995611
  C   -3.06832502786875      4.06832184023695     17.20678511756820
  C   -4.28456663126960      3.93760656537203     16.51007143861418
  C   -5.35031148740251      3.22476547037470     17.07428039877865
  C   -5.20530712439993      2.62789868711350     18.33541864114393
  C   -3.99221976927060      2.73964975849709     19.02845655018828
  C   -2.92894247187468      3.45788584141446     18.46839573865167
  H   -1.97698392681838      3.53629834878463     18.98973523739252
  H   -3.87230452898672      2.25920910691176     19.99883254174706
  H   -6.03182695292445      2.06742035337006     18.77108557728902
  H   -6.29003005287774      3.12919675882685     16.53071298060617
  H   -4.37893843645487      4.38534669042020     15.52171150795013
  C   -1.85561242364414      6.72816688343610     16.94716845740071
  C   -2.04480788663666      7.10240439462836     18.29071188624575
  C   -2.13071278022201      8.45449160232619     18.64233263893546
  C   -2.00490426091712      9.44480896154834     17.65600651444236
  C   -1.79821248523462      9.07963490526799     16.31931634024275
  C   -1.73454610313453      7.72625528737648     15.96458291745605
  H   -1.58563116891710      7.42276282352619     14.92974254406297
  H   -1.69281198165973      9.84893648225128     15.55501197433781
  H   -2.06446684098246     10.49762243425024     17.93044255022139
  H   -2.29376493882446      8.73773867672902     19.68213919666263
  H   -2.13489922081494      6.33398882722604     19.05768865645659
  O   2.81813456430053      3.00967711828216     16.48859487598790
  N   0.87385995189548      2.30609496560203     18.17724294861987
  C   -0.09089940101479      1.32629109237229     18.13866976401484
  C   -0.82382143615478      0.98338873710075     16.98579956262963
  C   -0.56656688984498      1.53946399211927     15.72030783038720
  N   0.26397225141771      2.61083141480944     15.46844853896108
  C   0.31373349732813      2.75345704867177     14.09570768258718
  C   0.83224928158944      3.86932996725753     13.42893745319145
  C   1.27998050779222      5.02584477952945     14.09695231140909
  N   1.48345125596255      5.13181227069168     15.45190757341518
  C   1.66720498690610      6.47983910076684     15.71472774450811
  C   2.01280575115892      7.01546428976305     16.96614984354216
  C   2.19720771196595      8.48177433928868     17.10613970124476
  C   3.11989627376848      9.19812434732091     16.31782011563066
  C   3.26925193995802     10.57961249526093     16.48025050638736
  C   2.49792962306170     11.26492271511930     17.42935361012021
  C   1.58224355688423     10.55915160473324     18.22129869079683
  C   1.43743961907005      9.17677103428913     18.06771268276311
  H   0.71179241119013      8.62882403617506     18.66398506175122
  H   0.97457570118405     11.08522424041726     18.95629385330619
  H   2.61298177614369     12.34099901638056     17.55212546826783
  H   3.99363177441549     11.11937806950380     15.87176964621001
  H   3.73358299718944      8.66221482689756     15.59539768845965
  C   2.27840653980848      6.22048869700571     18.10322527715918
  N   2.00770643406973      4.88350640862242     18.21702250600519
  C   2.56343459352956      4.46395319563434     19.40285007953997
  C   2.33970098655434      3.19561898901940     19.97412701727331
  C   1.44909427839436      2.24855518517334     19.42653093107979
  C   0.83288599990440      1.19156023553953     20.19464850669581
  C   -0.15562379515042      0.65352800632699     19.41301971840219
  H   -0.86027720423403     -0.12673759072402     19.67191970122934
  H   1.08218675668492      0.94422518929354     21.21917151123179
  C   2.95960659816591      2.86243581054016     21.28261401024928
  C   3.75373001947511      1.70242535836071     21.39181568073257
  C   4.34529639078255      1.35762906355399     22.61153960589552
  C   4.14282703511776      2.15904368502098     23.74338362590770
  C   3.34254579129469      3.30601738897736     23.64930204779506
  C   2.75481205663176      3.65634859825911     22.42898857472163
  H   2.11202681523158      4.53222845189908     22.36058390307010
  H   3.16736641479360      3.92350764587349     24.52926339498647
  H   4.60108088684459      1.88911491579118     24.69368689592466
  H   4.96578626498879      0.46502130942404     22.67747241439388
  H   3.91120390680348      1.08720624828179     20.50745768836484
  C   3.26104239747461      5.56396238361929     20.02975164034660
  C   3.04440500930798      6.66617879663258     19.24512432431564
  H   3.41091368130819      7.67490613620702     19.39093614512951
  H   3.83041835319947      5.50319882528994     20.94884616328461
  C   1.54930533426462      7.23179636317072     14.48971428735653
  C   1.35771695055938      6.32634315722581     13.48089657185379
  H   1.21179558589367      6.51914973045290     12.42554125430791
  H   1.59967719040234      8.31064987351063     14.41554217053170
  C   0.66417559319677      3.96260382183282     11.95343378636282
  C   -0.63061226504245      4.03917150815870     11.40308180335902
  C   -0.79802180106353      4.16143886626513     10.01930426562160
  C   0.32017866010189      4.20927064245285      9.17446226718861
  C   1.61000706153718      4.14506462023155      9.71874975633451
  C   1.78240201871216      4.02923704458547     11.10339027699427
  H   2.78205524067706      3.97903117444866     11.53284200036185
  H   2.48133082094275      4.18434501401040      9.06635270842107
  H   0.18703360274927      4.30226109342078      8.09742806246098
  H   -1.80147814424448      4.22853239717059      9.60088020058613
  H   -1.48536895318058      4.03307021921715     12.07732512860736
  C   -0.43286753735676      1.69034443141995     13.46885707493857
  C   -1.01596932906100      0.96822012599834     14.47286984261258
  H   -1.65638126841175      0.09925747004973     14.38771571797121
  H   -0.51915025368100      1.54002813922443     12.40007963381170
  C   -1.87141905770796     -0.06542183755399     17.07143823931030
  C   -3.19000474605064      0.25892471038114     16.69507932489338
  C   -4.20435242910798     -0.69997619401616     16.77843086065272
  C   -3.91460618975695     -1.99741737346701     17.22199956325392
  C   -2.60180196030797     -2.33293237882764     17.58214900641986
  C   -1.58583733166287     -1.37351427348308     17.50979929430785
  H   -0.56185642129424     -1.63767610720479     17.76939496066511
  H   -2.36681971027391     -3.34406382483668     17.91204180477988
  H   -4.70480597149952     -2.74456391222339     17.28340609502861
  H   -5.22202691834522     -0.42835512112537     16.50171671350223
  H   -3.41363949177510      1.27021190683878     16.36328549451067
  H   3.32949359029803      3.69132622119758     16.00124327678077
