108
Coordinates from ORCA-job BEQDAE-CH3OH_0_3_tpss_d4_lanl2dz_631gpol_Mn3.opt
  Mn  0.95999772154010      3.80809276761558     16.94952461139790
  O   -0.64713596971294      4.53307391524195     17.38466829566169
  P   -1.89451691900810      4.98878401885954     16.51175953145159
  O   -1.93838777185065      4.83978519884328     15.01972891679825
  C   -3.23303174955374      4.05084691460256     17.31958562261366
  C   -4.46294499827274      3.88864801989613     16.65366118405182
  C   -5.48211074060993      3.11983004169514     17.22897506384798
  C   -5.27583118090701      2.49680165652831     18.46876465472631
  C   -4.04917252693793      2.64157317268976     19.13069251030017
  C   -3.03191465952716      3.41618261545846     18.56088266800137
  H   -2.06966141855447      3.51583455470923     19.05822328123023
  H   -3.87990641562471      2.14107135951640     20.08324061852912
  H   -6.06516333391214      1.88990010713573     18.91099944373326
  H   -6.43200356062927      2.99865207488208     16.70893874776342
  H   -4.60366745303817      4.35133654940342     15.67777996118295
  C   -2.01297352185300      6.74099670758651     16.99803071860606
  C   -2.15317978816908      7.13491832871654     18.34181497226013
  C   -2.12418139570021      8.49120199027443     18.68461506788126
  C   -1.93468406231448      9.46236659725363     17.68935407090489
  C   -1.78417945323636      9.07543003565191     16.35140687730396
  C   -1.83200184217691      7.71942815410460     16.00494571316129
  H   -1.71426535351199      7.39975814033437     14.97112418748862
  H   -1.63001140144885      9.82923268074274     15.58012597649413
  H   -1.90144237900079     10.51776294058103     17.95821830857700
  H   -2.24453106296089      8.79282612914338     19.72495495814069
  H   -2.28596127291474      6.37994724125057     19.11597868775771
  O   2.76262479534430      2.89089911931931     16.44314775909286
  N   0.69127717379199      2.35460648815884     18.30125227250948
  C   -0.22274998546757      1.32397257885314     18.19798678220284
  C   -0.85171661209770      0.92172491665263     17.00990543033085
  C   -0.57224245936205      1.49119293097449     15.75716745942077
  N   0.19185641387801      2.62370355559284     15.53644370776639
  C   0.14727206354097      2.84805758601979     14.16944370205708
  C   0.56793196997629      4.02097968011742     13.52761959082954
  C   1.04006382880768      5.14925728907651     14.21212111978834
  N   1.33985977805032      5.21107211143955     15.55960371164722
  C   1.64751952980798      6.53668582160143     15.81788190504967
  C   2.10259127152622      7.02972849970323     17.04860802938336
  C   2.38073074854282      8.48485639526374     17.18901115988851
  C   3.35348378821351      9.13805556684670     16.40804221632077
  C   3.58573291554181     10.50989520419912     16.56208466209723
  C   2.84902399544609     11.24817604600439     17.49849476425782
  C   1.88116040569997     10.60598396066501     18.28274747466955
  C   1.65064669674168      9.23454315301483     18.13259670888368
  H   0.88650230374267      8.73453285570847     18.72355715049687
  H   1.29998580956188     11.17428787125405     19.00803828490103
  H   3.02953293592430     12.31586854695547     17.61622679186638
  H   4.34658233402016     11.00037971736744     15.95606179916097
  H   3.93514143565645      8.56155850114839     15.68973583432606
  C   2.32357500292451      6.21419273773632     18.17288109537400
  N   1.92875001179914      4.89805602389091     18.30819472973809
  C   2.35159304679618      4.49846906393707     19.56436235577272
  C   1.99025747132921      3.29497466652648     20.19274476892164
  C   1.12123068341082      2.35431864227932     19.61086033592921
  C   0.45871054281893      1.30489239442800     20.34987014395466
  C   -0.40101490434034      0.68900395358097     19.48141416436382
  H   -1.09127758098065     -0.12027849286509     19.68467799036582
  H   0.60395478418891      1.10216131771955     21.40394534618153
  C   2.45233528746109      3.03774555911345     21.58429647903228
  C   3.19532529948617      1.87662841844413     21.87700852083329
  C   3.62558099350867      1.61377096858517     23.18234806884686
  C   3.31607073258962      2.50498102440356     24.21869106056992
  C   2.56961197888511      3.65832588921035     23.94148554261517
  C   2.13971038748350      3.92200127440397     22.63622615093999
  H   1.54172040738617      4.80695657197105     22.42404975981808
  H   2.31295534447970      4.34880449642409     24.74396554373771
  H   3.65006453215292      2.30030522488857     25.23489257513208
  H   4.20545402079499      0.71515597928403     23.38931303606908
  H   3.43801707014361      1.18767739821337     21.06912964451476
  C   3.11381963694051      5.55551261165137     20.18408391322570
  C   3.06456748378750      6.63086427017803     19.33687440326562
  H   3.51253106691750      7.60841745773749     19.46827535262746
  H   3.60741976742409      5.48667854384234     21.14560770867221
  C   1.50666184782427      7.32094014022307     14.61559165430916
  C   1.16494105213591      6.45438514091790     13.61353685133759
  H   0.96638971059204      6.67607041214147     12.57219866430818
  H   1.64659584073160      8.39291455422110     14.55370684550007
  C   0.25967510023591      4.17449552799273     12.07653779854098
  C   -1.08614888939574      4.29490123472076     11.67714520400169
  C   -1.40372738329215      4.46155797401317     10.32455320154979
  C   -0.38613101652812      4.51442699034442      9.36082584043118
  C   0.95419892403578      4.40771897341904      9.75508418622299
  C   1.27617541996510      4.24189263491202     11.10843430846116
  H   2.31705591108788      4.15855654535510     11.41981751073581
  H   1.74830683189961      4.45155244536457      9.01052866519178
  H   -0.63606616225676      4.64370537776926      8.30845088003620
  H   -2.44593440996325      4.55918281463080     10.02256011722172
  H   -1.85707079687712      4.28192666007739     12.44598713443320
  C   -0.55586925689966      1.77443629592828     13.51618821963651
  C   -1.03057007171408      0.95238279959887     14.50244615825581
  H   -1.62203896131372      0.05112305581360     14.39734273747243
  H   -0.69422392476806      1.68592036485736     12.44575845503009
  C   -1.87709675004246     -0.15608573242090     17.06447482856198
  C   -3.20393365669267      0.14378652495614     16.69789865749819
  C   -4.19504246737490     -0.84147958840099     16.75923712939364
  C   -3.87448177642732     -2.13994378455002     17.17813451533250
  C   -2.55495144743957     -2.44917389679254     17.53621808751201
  C   -1.56224360928543     -1.46366415219926     17.48058353242388
  H   -0.53400327298594     -1.70310574778421     17.74860098247054
  H   -2.29700082225372     -3.45905004175358     17.85311810306282
  H   -4.64658092749627     -2.90697079904875     17.22460594876429
  H   -5.21912019483364     -0.58993671433368     16.48648735834801
  H   -3.45235060591766      1.15656226984246     16.38804697436970
  C   3.95753714942853      3.70005190509383     16.26696399490126
  H   3.75610959321139      4.54716561403335     15.60249907947708
  H   4.21741343625513      4.05917938607823     17.26355778639244
  H   4.75563477337230      3.06119744581002     15.87114684264150
  H   2.49377911859382      2.49513106492942     15.58448008885660
