65
Coordinates from ORCA-job BIZBES-oxo_0_3_tpss_d4_lanl2dz_631gpol_Mn3.opt
  Mn  10.84063999380558      2.48556536570125      2.30587943838771
  Cl  8.52025456090705      2.25934165039739      1.58288583184926
  O   10.31830969713434      4.03919955522065      3.09091380940780
  O   10.44741339349952      1.47149293526424      3.83123502125580
  O   12.45279933208581      2.43031775919992      2.55496177346246
  N   11.10295653080419      3.36645883080185      0.54171019321272
  N   11.01072694839736      0.85797194648898      1.18114809038017
  C   10.06771964940337      5.24163550092539      2.61171087891908
  C   9.51781695836456      6.22731294566911      3.49636283103865
  C   9.33257767009960      7.51329007367137      2.98168049677718
  H   8.92820930129200      8.28447993164500      3.63188950202914
  C   9.62730296934109      7.86029802583921      1.64717338809987
  H   9.45572237139603      8.87732912234162      1.30117845294474
  C   10.11623347349952      6.89473077834974      0.78348636385551
  H   10.32892742343241      7.13182916614010     -0.25861234995271
  C   10.34583732421450      5.57663788628180      1.24486214002679
  C   10.84087576793088      4.62476639622255      0.30204512056931
  H   10.98481899451673      4.99440766243519     -0.71611179770568
  C   11.58569896459925      2.48679415285012     -0.44979511276083
  C   12.10651901131984      2.86935149033184     -1.69642499172778
  H   12.18438297676221      3.92015592486551     -1.96499621287234
  C   12.56008003312883      1.89417623419235     -2.58600903951973
  H   12.97109150775005      2.19366663173799     -3.54781200599420
  C   12.51555305671691      0.53605289416960     -2.23025312343666
  H   12.89164269960019     -0.21944813201182     -2.91718488815584
  C   12.01927437445534      0.14700094834166     -0.98518902586058
  H   12.03262148556373     -0.90213956424665     -0.70028402513832
  C   11.53581595795493      1.11982525406138     -0.09391603351597
  C   10.61022919798936     -0.33337889539613      1.56247715548097
  H   10.61231049519113     -1.12292534995511      0.80704492238597
  C   10.18284722777619     -0.71341147180441      2.86065774703870
  C   9.83249980712037     -2.07855695057782      3.05284455400067
  H   9.82549031970365     -2.74200435679086      2.18804576306745
  C   9.52154054613384     -2.54741615516747      4.31104295333046
  H   9.24967982366968     -3.58885017499732      4.46862328056910
  C   9.58335517416171     -1.65994560801996      5.41117897136795
  H   9.35998726669657     -2.05940579299101      6.39740688489849
  C   9.91681204719969     -0.31171314422684      5.29621520375816
  C   10.18471819909226      0.19646249204194      3.97704901843645
  C   9.09817758479046      5.85254438730455      4.92244100025078
  C   8.57925474725341      7.07662810211737      5.70673147459581
  H   9.34940755530423      7.85440837288981      5.81476907503550
  H   8.28945454852796      6.75267979100179      6.71528745984759
  H   7.69176651423639      7.52484884300526      5.23757193863721
  C   7.93912597479635      4.82397057887197      4.82184987061160
  H   7.64618651032277      4.49586609192906      5.82906643874234
  H   8.22423105495368      3.94528040246948      4.23509215502451
  H   7.06481835867925      5.28507687135235      4.34187636668806
  C   10.29048450205610      5.26383047766247      5.72160075710130
  H   11.11433838209070      5.99011405331230      5.77379531779310
  H   10.66611408795733      4.34078187310260      5.27384932735373
  H   9.96452374496147      5.04576743949028      6.74854090421992
  C   9.98934070732234      0.61510547908524      6.51777494702909
  C   8.92539705693232      1.73076121407864      6.37919608742116
  H   7.91540574185341      1.29931559204639      6.34021691785017
  H   9.08767359444940      2.31161971991969      5.46894860274630
  H   8.97810655725486      2.40804236621281      7.24440762380515
  C   9.71484455388541     -0.14445385618613      7.83268864266128
  H   10.44388493170469     -0.95011179346274      8.00198606303796
  H   8.70408975025890     -0.57662637344845      7.85570918923286
  H   9.79391715807874      0.55898926323232      8.67268910743695
  C   11.40602816146947      1.23960016884714      6.62313894655098
  H   12.16319567521652      0.45413974249636      6.75783494446419
  H   11.44849149856715      1.90786124858972      7.49574244731852
  H   11.65854851436466      1.81650398507697      5.72847321463360
