64
Coordinates from ORCA-job BIZBES_0_1_tpss_d4_lanl2dz_631gpol_Mn3.opt
  Mn  3.79273752189458      3.91841420197470      1.61420064869993
  Cl  1.69434701834828      3.30658970109348      0.98207629364050
  O   3.45952272848481      5.48597987000494      2.55722336647971
  O   4.09929902331274      3.03454528175445      3.21877456422957
  N   4.23279204842920      4.91297719261744     -0.02075494155843
  N   4.60629708019038      2.44284919463853      0.59558404557171
  C   3.28791299056660      6.72886699201021      2.16114658830957
  C   2.79989657009523      7.70666945299542      3.09411606214715
  C   2.69328018114435      9.02375003628979      2.64896501723003
  H   2.32686812522194      9.78173817706530      3.33686798209913
  C   3.03207962204670      9.43253509760578      1.33720693251007
  H   2.92806912320777     10.47745434828157      1.05242735642818
  C   3.48029815686684      8.49479377220790      0.43118218706412
  H   3.73774593383642      8.77747017880973     -0.58982508439438
  C   3.60855618186316      7.13097333987621      0.81665591012644
  C   4.07012214849513      6.21745706818095     -0.16653080879630
  H   4.30993855047154      6.65818608966245     -1.13705151825890
  C   4.65605556508996      4.10206277228172     -1.10125489258541
  C   4.84826076093744      4.52557868146548     -2.42739246660881
  H   4.65965139933832      5.55610213351907     -2.71720404145506
  C   5.27284262045738      3.61419969193652     -3.39523484907078
  H   5.41781277843418      3.94861976334523     -4.42053747800359
  C   5.50763574017366      2.27355329219736     -3.05117538606649
  H   5.84110269799956      1.56554882023254     -3.80721157625553
  C   5.30807265345428      1.83930559694142     -1.74031559059294
  H   5.49260036426130      0.79692221735156     -1.49336274963737
  C   4.87120968445712      2.74609267230507     -0.75990286136068
  C   4.71181652208985      1.21450379070511      1.06217089208912
  H   4.99264805541772      0.41848715688603      0.36847055100227
  C   4.50916475342620      0.80781479507538      2.41022574678695
  C   4.64652007980261     -0.57614055669333      2.70093869089001
  H   4.84524784228905     -1.26700895036447      1.88139865783534
  C   4.52788669476246     -1.02778859475574      3.99990837150033
  H   4.62096361205019     -2.08647946001955      4.23275963634134
  C   4.29462223624589     -0.09694062381174      5.03655059713261
  H   4.21440810376466     -0.47749930333895      6.05166731859892
  C   4.16228012547227      1.27647422386883      4.82102785863718
  C   4.24543719003207      1.74486730375896      3.46778252158970
  C   2.38085186254191      7.29239627204672      4.51136561898117
  C   1.89635744303196      8.49818768400961      5.34359649272577
  H   1.01721489575499      8.98340185482642      4.89570658249611
  H   2.68452976958287      9.25430172558607      5.47344858395878
  H   1.60632322135098      8.14608281637936      6.34292334116468
  C   1.20587412012534      6.28320926531464      4.41368630784475
  H   0.33000168283569      6.76220790643055      3.95405756006643
  H   0.92191688770921      5.94538887301140      5.42089106301141
  H   1.47314040349318      5.40772941243984      3.81481970251655
  C   3.57905404455520      6.65585586553723      5.25975860341391
  H   3.27063935834101      6.37646487444401      6.27754959406763
  H   4.40884504513647      7.37305362404240      5.33981591298838
  H   3.93385657220887      5.76142809599214      4.74366157085304
  C   3.93333193649491      2.25783817022653      5.97940131683135
  C   2.59222371401275      3.00766804822542      5.77926482389006
  H   2.58781549008883      3.57372443727957      4.84552684608997
  H   2.43022930869114      3.70400291539133      6.61482947214279
  H   1.75504547226449      2.29593644586342      5.76035084817772
  C   3.86678923905593      1.53373608839101      7.34087634897420
  H   4.79918954793752      0.99783835188803      7.57065662242566
  H   3.03227001470641      0.81927813662557      7.38500537323784
  H   3.70780631679090      2.27861569991444      8.13237985915176
  C   5.11456916220848      3.26070306532657      6.03856107923191
  H   5.21157190776391      3.81626035328012      5.10111413912086
  H   6.05762603784431      2.72919533881333      6.23135141717895
  H   4.95422406104066      3.97876926075869      6.85562736716296
