70
Coordinates from ORCA-job BIZBES-CH3OH_0_5_tpss_d4_lanl2dz_631gpol_Mn3.opt
  Mn  3.66486529655913      3.91060030656892      1.59493756449192
  Cl  1.45940277245071      3.03439476058485      1.13921137548223
  O   3.16228210432406      5.46447176891192      2.49530959769735
  O   4.14443329568889      3.02780792475621      3.21489573348727
  O   5.96241096667032      4.78482809800289      2.02004370520542
  N   3.87703346019570      4.87996021071046     -0.13075768876101
  N   4.45530908325033      2.41775342350071      0.52889971332873
  C   3.05311781028607      6.71235946672609      2.09721869241832
  C   2.61708436063154      7.70346269219830      3.03986638523827
  C   2.55153360090224      9.02647457341897      2.60228482771669
  H   2.22810778090927      9.79332143260085      3.30204794439613
  C   2.88238573367830      9.42974377038843      1.28787706879877
  H   2.81167719756633     10.47867453985145      1.00805641604944
  C   3.28088388196624      8.47770986922907      0.37291800012612
  H   3.52878585009111      8.75382839054726     -0.65229092136998
  C   3.36575750414249      7.10849475540670      0.74967926096036
  C   3.76622696610013      6.18590478095870     -0.25583912998135
  H   4.01061127209619      6.62763972431296     -1.22588760891082
  C   4.27708658090690      4.05029923303772     -1.20155954414682
  C   4.33290311540898      4.44016265001204     -2.55099863585349
  H   3.99888842146420      5.43012133914445     -2.85170583752507
  C   4.79794559205578      3.54693294776741     -3.51720813055168
  H   4.84023618831934      3.85698573028717     -4.55940767298523
  C   5.20510044184179      2.25485513805703     -3.14857319595774
  H   5.57617811529460      1.56252584254946     -3.90158520141802
  C   5.12314570668319      1.84537468783021     -1.81676295080912
  H   5.43788239452145      0.84006555984851     -1.54743562163067
  C   4.63555552558870      2.72808936290888     -0.83830089683316
  C   4.57350438939759      1.19647927462242      1.00369191899868
  H   4.80733307797617      0.39208470982166      0.30141661922705
  C   4.40473326608150      0.79342503206888      2.36027793093737
  C   4.49638953447121     -0.59912684956001      2.63071741457011
  H   4.65934320591588     -1.28409401784092      1.79840861776779
  C   4.36547179750530     -1.06902827250052      3.92174404967669
  H   4.42320407906812     -2.13378276515510      4.13720324683000
  C   4.14407703247711     -0.14865311022714      4.96949881675658
  H   4.03089672717819     -0.54339226092375      5.97618370240609
  C   4.05163079156726      1.23179212179799      4.77509507957879
  C   4.18929571551279      1.72424186618264      3.43641285792675
  C   2.22258387327202      7.29516574728270      4.46648636871995
  C   1.78913246531741      8.51215099457530      5.31110092431553
  H   0.91409226556867      9.02013306230632      4.88088931052539
  H   2.59992222958594      9.24684672469006      5.42387911722478
  H   1.51050008977543      8.16721822045933      6.31622219222181
  C   1.02217800214748      6.31292369319808      4.40634424878179
  H   0.14190969431749      6.81571762104765      3.98173102319404
  H   0.76710491097126      5.97875223087804      5.42268948870193
  H   1.24344769841126      5.43289068816698      3.79535122769895
  C   3.42792006834882      6.63312089919743      5.18216935328816
  H   3.14108349250910      6.35345903533873      6.20626437884744
  H   4.27284814582568      7.33434951460165      5.24303042675602
  H   3.75261801050041      5.73362292754635      4.65420816137005
  C   3.77946801305775      2.19607537759148      5.93985255546214
  C   2.45673657668412      2.96108365870009      5.67697978557973
  H   2.50291841355176      3.53271619990812      4.74757901070734
  H   2.25867422817650      3.65420159657195      6.50764750466341
  H   1.61563273023315      2.25783344250074      5.60884227554859
  C   3.63031707563237      1.44826452939885      7.28170998719555
  H   4.54500714588343      0.90253096877408      7.55618294740342
  H   2.79168961886670      0.73789054096957      7.26265873534924
  H   3.42769772207363      2.17943651687444      8.07606968115566
  C   4.95867387614065      3.19098376880312      6.09097564301190
  H   5.10315330063493      3.77348392028605      5.17618854830364
  H   5.89050411458802      2.65416853225731      6.32070012478610
  H   4.75358963793275      3.89023472080292      6.91406717915199
  C   7.07650615881920      4.19743338864722      1.32769502288423
  H   7.04986525160453      4.60025537057675      0.31075376010507
  H   8.02757688532928      4.47815103028968      1.80329556506852
  H   6.99519033607829      3.10204244633741      1.28036699888398
  H   5.87293733141630      4.33976392301722      2.89064494975444
