96
Coordinates from ORCA-job BEMXAU_1_4_tpss_d4_lanl2dz_631gpol_Mn2.opt
  Mn  10.02182522773303      8.18838575017301      9.75369585802739
  N   8.67187404389120      9.54605475942918      9.14924830413811
  C   7.44817375035117      9.12523396453148      8.73369662995661
  H   7.31303318676883      8.04874526926991      8.68130932220429
  C   6.43559224535577     10.03158463702187      8.43666708746826
  H   5.46354584395221      9.66337810768621      8.11737407094422
  C   6.67699764152183     11.40671811026153      8.56311136706085
  H   5.88181231777363     12.11358507097867      8.34125872600426
  C   7.93847007601095     11.86137544612137      8.98272647099815
  C   8.89837233723797     10.87794444779766      9.25408527378898
  H   9.89226811400671     11.15163311231511      9.59907586481995
  C   8.30260459026629     13.33620742334770      9.19076534674362
  C   9.48474762655766     13.70543807666713      8.25893150993323
  H   9.76505850274423     14.75670458466008      8.40800925445912
  H   9.20986039698029     13.56922068657965      7.20446885298506
  H   10.37182307960654     13.08990731956578      8.46418219058446
  C   7.11417256950442     14.26722496898946      8.87874192109402
  H   7.41562188000312     15.31007497565681      9.03957165337866
  H   6.25518883955398     14.06444571779213      9.53331492842081
  H   6.78791578226180     14.17303571623085      7.83373285538098
  C   8.72392355060455     13.54279424467133     10.67009825862982
  H   8.97243925864660     14.59893856896783     10.84141161802973
  H   9.60647812920753     12.94316075586210     10.93290042718010
  H   7.90889073876212     13.26541920717882     11.35206967339494
  N   10.07448868674501      7.41821970531569      7.90036266796750
  C   9.92970468166920      6.07405856264793      7.74560584753374
  H   9.80607577195825      5.51071395891543      8.66653363522821
  C   9.91144581391544      5.46863170015901      6.49608996433409
  H   9.77811153696508      4.39045300578841      6.44636798120154
  C   10.06192096165480      6.23210889262424      5.31920304762841
  C   10.22362292562979      7.61746858343822      5.49910315240251
  H   10.34475119369904      8.28440847608684      4.65049525508460
  C   10.21463965208526      8.16781933479711      6.77888588252590
  H   10.31032776432595      9.24087541120930      6.93165135272392
  C   10.03573419219329      5.56004754267263      3.94573640921950
  C   8.67273706428415      4.84018273804125      3.76974814609578
  H   8.51497106897966      4.07174274527686      4.53785538567864
  H   8.64030854587422      4.34757050495862      2.78891542306359
  H   7.84094691094394      5.55511679588001      3.82354973356634
  C   10.21168836581147      6.57644560811689      2.79974038725225
  H   10.18289694062824      6.04970699465702      1.83766356009373
  H   11.17621056185065      7.09947893014636      2.86301393538656
  H   9.40611574350243      7.32384026908785      2.79337747928403
  C   11.18323895863639      4.51875050571301      3.87358895676146
  H   11.08392363811243      3.74946956480217      4.65065233023288
  H   12.16188207068578      5.00278257818098      3.99222373696593
  H   11.16393227570530      4.01608594645563      2.89762379625745
  N   8.71440779406737      6.84572967928593     10.52410052361682
  C   8.47480123377620      6.49479982487403     11.65432528302073
  S   8.19864381095844      6.07793729235919     13.19698977459559
  N   11.71493785362994      7.20804453852721     10.23794921929131
  C   12.79797349912781      7.14157825849708      9.41994194559194
  H   12.67095572134137      7.54866297836612      8.42012921975908
  C   13.99839692663773      6.58184945188340      9.84594187438978
  H   14.84850439106922      6.55143629220762      9.16832142552893
  C   14.09455028492634      6.06650614122932     11.14552888379656
  H   15.03399599814654      5.63713143166747     11.48364228317135
  C   12.98093976021939      6.10873520997909     12.00155795707362
  C   11.81464539265211      6.69135067908992     11.48712118521699
  H   10.91468396846761      6.76524452497467     12.09085393576720
  C   12.97659754272157      5.58443172088472     13.44115990809553
  C   12.52568968115470      6.72539487521928     14.39227773464293
  H   12.54791151570234      6.36866017511754     15.43063664437974
  H   13.19690522497713      7.59194610362674     14.31145478084430
  H   11.50159459696238      7.05764111377136     14.17692928750186
  C   14.37456244970282      5.10007950516923     13.87401365408682
  H   14.33100802136633      4.74894655782385     14.91269559869501
  H   14.72495156619924      4.26086191914170     13.25701669202638
  H   15.12042716645962      5.90648127446290     13.82513084585856
  C   11.97746610639645      4.40254157105995     13.54047169806468
  H   11.96328573327089      4.01718956708283     14.56901155808745
  H   10.95592791777736      4.71058199258863     13.28254154260259
  H   12.27434455379826      3.58346974811102     12.87152484213549
  N   10.27079603377229      9.30521176595715     11.41886371268644
  C   11.46577310558761      9.84342772327366     11.78383788489761
  H   12.30710190706342      9.62437866116470     11.13048417496999
  C   11.62029892954234     10.62361670068537     12.92174502057304
  H   12.60479117365458     11.02854659013575     13.14471139080306
  C   10.52515897365564     10.87284492047072     13.77568857766118
  C   9.30061998138053     10.30027365267704     13.39133557394523
  H   8.40517023316291     10.42925562912971     13.99147295896203
  C   9.20580973537741      9.54765671504533     12.22352286210572
  H   8.26412247442142      9.10910516694725     11.90751459134246
  C   10.69798095577990     11.72326209795859     15.03355252755581
  C   11.76969144588587     11.06454445251943     15.94137732855743
  H   12.74221427039210     10.99145801436712     15.43651320375302
  H   11.90608414522200     11.66844281781086     16.84820717116468
  H   11.46205579062251     10.05435950373260     16.24253903349667
  C   9.38369078825134     11.85420325197885     15.82893704319780
  H   9.55805588038376     12.46873698716703     16.72105059724760
  H   8.59768362875859     12.34368434626625     15.23711295911751
  H   9.01230148600932     10.87644933630110     16.16496317641910
  C   11.17219556223129     13.13908556289233     14.61242570283600
  H   12.13332369776204     13.10612573201389     14.08199164964056
  H   10.43425557842335     13.62112126598988     13.95669482553212
  H   11.30145045598934     13.76618740178461     15.50445420357643
