96
Coordinates from ORCA-job BEMXAU_1_2_tpss_d4_lanl2dz_631gpol_Mn2.opt
  Mn  10.12987949049688      8.31943347586191      9.71663049091661
  N   8.71518542997633      9.60985568260170      9.13129309771301
  C   7.53574458004139      9.14822625654793      8.63841849517031
  H   7.44054466586802      8.06774330463368      8.58472350416898
  C   6.51799024295173     10.01907194827007      8.26377044765316
  H   5.58101196437987      9.61871767483220      7.88404877477474
  C   6.70929620832806     11.40220343316872      8.38979868643795
  H   5.91070014561055     12.08185612342333      8.10416802699212
  C   7.92213981598749     11.90067438295451      8.89299856428289
  C   8.88856376982213     10.94832471484628      9.24592293777776
  H   9.84294351370409     11.25494854421212      9.66757129892753
  C   8.22356168487909     13.38812174546107      9.10873137833821
  C   9.48116232468802     13.77860627127030      8.29110555912723
  H   9.70964096018449     14.84205544058098      8.44195816865997
  H   9.31998747816323     13.61108056406044      7.21774530846844
  H   10.36312952262729     13.20056805704185      8.60015400507395
  C   7.04672845355354     14.28000842636355      8.66588554915767
  H   7.30486161544268     15.33344531826927      8.83269281155862
  H   6.13514643793071     14.06640756362435      9.24093053142511
  H   6.82381074710875     14.15754664281755      7.59690430838910
  C   8.49186342991347     13.62851268548121     10.61847898501603
  H   8.71816915079948     14.68927558121125     10.79124598113814
  H   9.34465476786066     13.03792319949723     10.98103595034204
  H   7.61262717473586     13.36147302966972     11.21995029194068
  N   10.16789565360477      7.47397357347982      7.89097799143816
  C   10.12549898851212      6.11849760550428      7.78643704578527
  H   10.10068206076961      5.58246013163821      8.73049262395000
  C   10.08645201348313      5.46699595619907      6.56095981378444
  H   10.04173453154663      4.38050499225623      6.55314583692373
  C   10.09817077786870      6.19601528100933      5.35349123091703
  C   10.15242188379344      7.59554872689594      5.47772502138888
  H   10.16388401695541      8.23802467589076      4.60202609000782
  C   10.17731563898785      8.18847488928236      6.73872858508288
  H   10.19552263975143      9.27124563728019      6.84921535156723
  C   10.04481968922968      5.46994088995502      4.00856584313865
  C   8.74463418080015      4.62494443648153      3.95146139890632
  H   8.70775664855846      3.88244714443221      4.75914424000477
  H   8.69564640732227      4.08680291596515      2.99562408598754
  H   7.85583777270486      5.26473608376135      4.03263991995390
  C   10.05596269236862      6.44819844742174      2.81748279383874
  H   10.00969302029424      5.88045677960295      1.87965180613992
  H   10.97353404150825      7.05274964423228      2.79406094459080
  H   9.19036434487782      7.12505888388032      2.83848773431429
  C   11.27513024000811      4.53073280687246      3.90006448163815
  H   11.28986850991124      3.78841706110777      4.70877647030526
  H   12.21169240609614      5.10279131673808      3.94081516518165
  H   11.24341546233605      3.98931784341600      2.94541961383409
  N   8.89274944492299      7.00519710906517     10.43838413142923
  C   8.52060426616958      6.55871371029086     11.49634041151102
  S   8.03080342725361      5.98158878876067     12.92807363449173
  N   11.76427516241006      7.28217046977668     10.22228173047832
  C   12.85570798997625      7.19004303455791      9.41577123218650
  H   12.74694458473023      7.59750896946377      8.41363450751091
  C   14.04017045811250      6.60415604708143      9.85073296809358
  H   14.89374512974868      6.55358892347023      9.17866182472977
  C   14.11589347353026      6.08845418473221     11.15152603660218
  H   15.04250733898821      5.63751543688549     11.49672105110969
  C   12.99712749725406      6.15967746084888     11.99853062568664
  C   11.84788240216681      6.76690718328312     11.47441943915665
  H   10.94579838846700      6.86047555386556     12.07079585288500
  C   12.96875873515978      5.63485747647187     13.43798007878640
  C   12.54707317629858      6.78721208864463     14.38834048354309
  H   12.55432129126082      6.42968821594419     15.42666416677599
  H   13.24257283278427      7.63447768608454     14.31095426657608
  H   11.53425471640007      7.14907880159889     14.16819574962955
  C   14.34909892997804      5.10923045035771     13.87906959639174
  H   14.28985039401962      4.76002816942899     14.91764882411464
  H   14.67809249993855      4.25997371942143     13.26409170782836
  H   15.11843531997147      5.89337307086097     13.83369939386233
  C   11.93401440446211      4.48341940141242     13.53102103848077
  H   11.90217058871906      4.09745548854181     14.55893930709734
  H   10.92327666601332      4.82046617713512     13.26593352635898
  H   12.20956711618688      3.65631164606037     12.86289764046916
  N   10.31238485809818      9.37888424455239     11.40315062842638
  C   11.50385377400616      9.88962493103072     11.82038860293854
  H   12.36250716016345      9.68012985743917     11.18600658900786
  C   11.63824121226839     10.62795110651973     12.98863404040133
  H   12.62290548849903     11.00734325887827     13.25219635335085
  C   10.52528747613504     10.86114025067530     13.82296949938620
  C   9.30386258614040     10.32151316634065     13.38392451759701
  H   8.39453844015813     10.44230994633592     13.96482478780000
  C   9.22962978174375      9.60957109253887     12.18947245565512
  H   8.29324537743887      9.18688945902974     11.83889524319832
  C   10.67924202797937     11.64984488052773     15.12355286683856
  C   11.69352771830330     10.91041272447061     16.03588907814855
  H   12.68041218498608     10.82700622556705     15.56141373147486
  H   11.81732817536976     11.46412814920334     16.97599218751020
  H   11.34081319665136      9.89845512016029     16.27519640048695
  C   9.34168611997833     11.79072874093549     15.87701858606954
  H   9.50169993678609     12.36495272606368     16.79822599514190
  H   8.59232689077904     12.32614529982077     15.27742967910043
  H   8.92960789736506     10.81291219719583     16.16151713854874
  C   11.21787165719404     13.06513231196902     14.78954095363712
  H   12.19207255225070     13.02158073648238     14.28443790237211
  H   10.51808210208773     13.60810805591503     14.13974049755796
  H   11.34499995434962     13.64165046429655     15.71541579743356
