102
Coordinates from ORCA-job BEMXAU-CH3OH_1_6_tpss_d4_lanl2dz_631gpol_Mn2.opt
  Mn  10.15939882835771      8.33265742324346      9.62179332274041
  O   11.61554051334305     10.00617206246088      8.77392373459984
  N   8.46863936446170      9.65942302442024      8.92232076861087
  C   7.23830645999924      9.09790069377392      8.85033820211921
  H   7.20813239216789      8.01353738828070      8.92255047163060
  C   6.08583421687232      9.87194663093429      8.73108160548045
  H   5.11228360301545      9.39069569535743      8.67333997758321
  C   6.20004450922675     11.26793512744656      8.71115703730324
  H   5.30257957649670     11.87762708447937      8.64104750390950
  C   7.46544716840285     11.87255986432645      8.78880038007727
  C   8.56456421306225     11.00342097059463      8.87513777429665
  H   9.57938882397380     11.39143656592693      8.91758702203925
  C   7.69541171742676     13.38796990158872      8.80828166499927
  C   8.56192014717155     13.78919893530442      7.58739933794635
  H   8.74730965467743     14.87178795481628      7.59866654924126
  H   8.05443358450038     13.53689877458769      6.64685213742661
  H   9.53618123117647     13.28080371882207      7.59626469180241
  C   6.36833674724594     14.17103416258559      8.75419526538633
  H   6.57745519822342     15.24809468944500      8.78253474798357
  H   5.72243069770820     13.93433246594980      9.61105311139788
  H   5.81160401221852     13.96543395304690      7.82945064677212
  C   8.43905415060995     13.76148027914832     10.11734320761320
  H   8.60414769069381     14.84652975318978     10.15858385408934
  H   9.41907456505747     13.26888402783555     10.18094163220876
  H   7.85358467512658     13.46720557320671     10.99882392187129
  N   10.25577665808853      7.34927443656976      7.64688598552348
  C   10.22511071664532      5.99585636112068      7.60649575726439
  H   10.25049949260957      5.49533952474120      8.57263293564154
  C   10.14914688785550      5.28299999896312      6.41446387522247
  H   10.12390604402811      4.19637711727195      6.45446955237367
  C   10.09852014915054      5.96154176624566      5.17926449360184
  C   10.11837476714768      7.36702402373107      5.23889734408595
  H   10.07250830813069      7.96718960235392      4.33460164078956
  C   10.19060499780079      8.01309683742659      6.47309296206721
  H   10.18758040278560      9.09944038376130      6.54625669640095
  C   10.01617635163619      5.17763870293818      3.86797652146646
  C   8.72238451326556      4.32129702807707      3.88240087657135
  H   8.71371221002500      3.61471240418229      4.72246822083610
  H   8.65295618323030      3.74167288824145      2.95234865156701
  H   7.83073407928420      4.95745823446085      3.95969403025794
  C   9.98826901514204      6.10286549567996      2.63532505549768
  H   9.93359192975188      5.49331336517040      1.72453618216959
  H   10.89547657546778      6.71967209518241      2.56811755743191
  H   9.11244503945160      6.76654216682290      2.64288490154187
  C   11.25134188818426      4.24451590395420      3.76538910814900
  H   11.29527968334131      3.53606755855757      4.60275996312390
  H   12.18364735842776      4.82506675032654      3.75631798640691
  H   11.19869702120054      3.66399320590343      2.83497318785122
  N   8.86053761208522      7.07644468114175     10.60892270549467
  C   8.57454711790441      6.99017360893036     11.77654785568160
  S   8.24134544563312      6.89621309923530     13.36576078245411
  N   11.95226496099724      7.14630680567562     10.35685019596092
  C   13.02216516292138      6.81595435644311      9.59840217265541
  H   12.98554485661260      7.13121177597674      8.55794327784707
  C   14.09954465635929      6.09932467648302     10.11364692754721
  H   14.94471638887506      5.84922206217548      9.47595332584271
  C   14.07321512982811      5.70860863238644     11.45934036109351
  H   14.91235622700925      5.15278446543163     11.87033566350316
  C   12.96766421785422      6.02604751569227     12.26518297097158
  C   11.93180887233909      6.74662498928414     11.64616539824482
  H   11.03669692120063      7.01714651298369     12.20120153863428
  C   12.83187751197189      5.61822044344041     13.73584780408980
  C   12.51379548178051      6.87220798086347     14.59073579902286
  H   12.42551936227780      6.58434125497903     15.64685841062937
  H   13.31577224275275      7.61933774548418     14.50567079091015
  H   11.56664118084500      7.33911292437126     14.29338891977405
  C   14.12452418308550      4.96840672285543     14.26832818270198
  H   13.99609861918027      4.71904496982649     15.32926474152433
  H   14.36186181266677      4.03547067536316     13.73809857252096
  H   14.98612292772845      5.64650274434009     14.18557761569475
  C   11.66456719966692      4.60371384918486     13.86074153388753
  H   11.55829822905934      4.29075845193431     14.90838721654547
  H   10.71085079052209      5.04367068254396     13.54201396147866
  H   11.85816838049397      3.70934261007154     13.25310094473449
  N   10.44532480413538      9.74588166854436     11.41892846186720
  C   11.62629551526066      9.90944157853874     12.06712366975585
  H   12.51543016147501      9.59748069913908     11.51961761937520
  C   11.72363416272214     10.40715014500060     13.36085848994711
  H   12.70741711708775     10.50254427729291     13.81498111029235
  C   10.55928407185909     10.76139967398237     14.07451284807176
  C   9.34217718153838     10.59288620329812     13.39497606112982
  H   8.39480803347795     10.82356040707354     13.87197009192738
  C   9.32599582984306     10.09032324446809     12.09408660803462
  H   8.38744411335069      9.93143408898604     11.56923962096765
  C   10.65484076002338     11.27123619451034     15.51309421567077
  C   11.31653864902168     10.16966484805520     16.38271959996082
  H   12.33113564522961      9.93458946485896     16.03458406770033
  H   11.38865312828899     10.51519850890515     17.42261835339655
  H   10.72394454222050      9.24581108485241     16.36453359908127
  C   9.27075099417981     11.60552043612275     16.10340901033906
  H   9.39223178775829     11.96849019380506     17.13188827011269
  H   8.76357086504837     12.39447959427593     15.53054351691839
  H   8.61896987408793     10.72185815020019     16.13696440005408
  C   11.53531037926624     12.54722495400820     15.53760031826352
  H   12.54785204467956     12.34858069469117     15.16175694391881
  H   11.09149458309810     13.34423448033741     14.92596356400091
  H   11.62525552614123     12.91478267979850     16.56839957977874
  C   12.84723752026602      9.99278526651752      8.01526901581860
  H   13.06732468771136     10.99429030961874      7.62460632301595
  H   13.68544670148799      9.63216228904253      8.62534890528210
  H   12.67825642382768      9.30546826009536      7.18277618987063
  H   11.72483539139213     10.58427379442637      9.55587982102823
