97
Coordinates from ORCA-job BEMXAU-oxo_1_4_tpss_d4_lanl2dz_631gpol_Mn2.opt
  Mn  10.36043739184398      9.14065127324803     10.61199605692606
  O   11.40253858081424     10.25314628118255      9.91512650068282
  N   8.74697695699059     10.22449539988388     10.04884037683289
  C   7.55648988820293     10.13853728948585     10.68988356130549
  H   7.52464668578247      9.47391830055816     11.54688226608025
  C   6.45391155761722     10.85870442300312     10.24171292952606
  H   5.50964072227969     10.78112228486549     10.77504009080513
  C   6.57526979866701     11.66535352227960      9.10250060877903
  H   5.71001298616298     12.21806137748761      8.74533651332351
  C   7.80504693128566     11.75954863298444      8.43066565701768
  C   8.87046745391794     11.02051785064544      8.96507557219925
  H   9.87493013089284     11.04700328063361      8.55140579171169
  C   8.04036601293182     12.60310050066862      7.17301433967928
  C   8.49513966658973     11.66652949254000      6.02355696695795
  H   8.67646835562014     12.25491768836350      5.11418470412201
  H   7.72338691504964     10.91743838063917      5.80020226281632
  H   9.42501517181586     11.13789281634459      6.27457407964089
  C   6.76107823012428     13.34360457178695      6.73507097242020
  H   6.96977837611229     13.92995228409080      5.83128093938348
  H   6.40919846643423     14.04000774403186      7.50892194641303
  H   5.94770793285682     12.64398016517422      6.49698296748423
  C   9.15014378468480     13.64594178841526      7.46306806806335
  H   9.33635894970297     14.24999456386386      6.56506895988062
  H   10.09555154170200     13.16518624436609      7.74815993514917
  H   8.84974704901325     14.32145754909923      8.27524679861789
  N   10.25147730735724      8.11001830713377      8.86469747841308
  C   9.17716920982388      7.36364365489016      8.51024162217399
  H   8.31186534848293      7.42774240239689      9.16027532507883
  C   9.18956831374473      6.54665698399531      7.38723311872444
  H   8.29785476808303      5.96682035946391      7.16272433740189
  C   10.33790958862236      6.46016913769137      6.57358031252056
  C   11.42590838444258      7.27035545298493      6.94505173154089
  H   12.34321994955286      7.28124203433794      6.36388921176704
  C   11.34985263067635      8.08063329615021      8.07536595798502
  H   12.15616246898439      8.73759931363092      8.39029420428775
  C   10.35968280880728      5.52606714192465      5.36362117534264
  C   9.23259073106303      5.95197838349822      4.38633278157713
  H   8.24345945457643      5.90022851680244      4.85979115303605
  H   9.22544961512363      5.28147351220082      3.51693475600600
  H   9.38979589508907      6.97825243912937      4.02859089053575
  C   11.70928456731243      5.56666892168562      4.62024570098696
  H   11.67612176104365      4.87672200140607      3.76777832991438
  H   12.53966042486458      5.25376574771134      5.26870495219543
  H   11.92894022011184      6.56914192268218      4.22736936575652
  C   10.09994756355323      4.07677905006028      5.85395799249293
  H   9.13326151687154      3.98768489070150      6.36621622107452
  H   10.88656712899711      3.74968679315563      6.54690233794363
  H   10.09147125952118      3.39363052408748      4.99446406322147
  N   9.13661462466207      7.77817026962438     11.45122694688611
  C   8.58189559416444      6.71983666606762     11.58597190746199
  S   7.85826162703554      5.27916872975308     11.74347949346462
  N   11.94288716730173      7.98940232349368     11.13840992006807
  C   13.11019245415764      8.58589129811340     11.47909532838444
  H   13.09948920533464      9.67093635343321     11.48014609114043
  C   14.24094116084878      7.82699839988395     11.76187556233730
  H   15.16478858274758      8.32485030354723     12.04633720145892
  C   14.17987565612317      6.43129236925382     11.64828925372119
  H   15.07035651376229      5.83982078640163     11.84559067982164
  C   12.98164463942675      5.80532004819604     11.26960735152245
  C   11.88006801620708      6.64465961652682     11.04882301257234
  H   10.91110187071840      6.24152136631834     10.77758804177370
  C   12.81498830550325      4.29508158049223     11.07245561024608
  C   11.76794637460005      3.76211327177831     12.08418480849905
  H   11.64077010333300      2.67967394628773     11.94804548433152
  H   12.09655952817489      3.94108938479715     13.11676249420428
  H   10.78672622913261      4.23485580918019     11.94783867316923
  C   14.14562500683636      3.54569088219691     11.28265249670694
  H   13.98861958652145      2.47233529500740     11.11721612700486
  H   14.92003331211417      3.88202436889239     10.57862365648600
  H   14.52451816373601      3.66955747608230     12.30663674289926
  C   12.31774099608002      4.03434346564352      9.62542618471332
  H   12.20434706873279      2.95400880447313      9.46376593453035
  H   11.34274252736491      4.50374441190801      9.43730142701276
  H   13.03485835739810      4.42091478102348      8.88778130245288
  N   10.42754960289176     10.13642945685453     12.37369783846093
  C   10.77702342606828     11.44772816041981     12.37244772634923
  H   11.03469742391885     11.84840262986923     11.39574530171036
  C   10.81960542572923     12.19662992053087     13.54084389735398
  H   11.09862875050308     13.24554681014024     13.47394397704399
  C   10.51433111300637     11.60754515928654     14.78607070051653
  C   10.17009854121513     10.24456812213642     14.75970758729570
  H   9.92565304742338      9.70789218769766     15.67157493083515
  C   10.12972471711300      9.54694243956633     13.55419609187920
  H   9.84895264610828      8.49997389638408     13.49812434121588
  C   10.56925477921727     12.43486528603424     16.07039198389068
  C   12.00981410459779     12.98404789617571     16.24668813101383
  H   12.30787024079566     13.62392397741207     15.40577569895575
  H   12.06438914584250     13.58543463047477     17.16368063958174
  H   12.73541057152606     12.16400874033677     16.32939796144498
  C   10.19717228769484     11.60380641079075     17.31436354090181
  H   10.25056772654296     12.24066172871723     18.20616878181158
  H   9.17422527707300     11.20789029844229     17.24955360738479
  H   10.89015520848447     10.76435341009530     17.46404424661548
  C   9.57628840473251     13.61989536796046     15.94011352330863
  H   9.82543645062419     14.26722744807068     15.08900379092086
  H   8.54767303856835     13.25878141746766     15.80836209590833
  H   9.61195494450167     14.23211810339497     16.85080998693289
