136
Coordinates from ORCA-job BAJKIH-CH3OH_1_1_tpss_d4_lanl2dz_631gpol_Fe2.opt
  Br  11.50559290337831      3.74282752540989      6.71308080107557
  Fe  11.23099822820761      3.08986498535524      9.13475345508270
  P   11.83909522304112      5.17045161584978      9.89903434099975
  P   9.13849627748568      4.00068136138203      9.10538204315051
  O   16.90652548006675      5.24669743850032     10.42289592206314
  O   10.26764437084514      8.34643684096079      7.50757439978749
  O   4.28706965398479      3.42028524479680     11.07799829343132
  O   7.26299618411228      6.89923168337398      5.15283802422528
  C   10.33965459867343      5.84243817778015     10.78727573657942
  C   9.15980344625567      5.74085159663814      9.80808500316900
  C   13.22690217533093      5.63091478026377     11.06627047089853
  C   14.58778626399128      5.56633170533857     10.35662739176347
  C   15.81032303858420      5.55854728579055     11.27434697180730
  C   18.15114305027386      5.12062451288073     11.10843144692159
  C   12.06545488536164      6.41860830797605      8.55424898272873
  C   12.09804803168124      7.90437419543633      8.96424377113487
  C   11.59813647620876      8.77008975975751      7.80394936531688
  C   9.72113204422626      9.02882340448132      6.37407723236389
  C   7.96596313463097      3.22069842142609     10.35079361373190
  C   6.47287263157594      3.54294734622242     10.15907418477367
  C   5.64336909826927      3.12750877797253     11.37482145492168
  C   3.41438565002312      3.05394599210836     12.14338241426604
  C   8.17789730254538      4.13714334915330      7.51688712593303
  C   8.08226075723179      5.56043844970747      6.94141806892270
  C   7.41582428281058      5.54541854206911      5.56686333227613
  C   6.69218648626971      7.00254990372277      3.85106053668486
  H   10.16464135012894      5.23403286761962     11.68496157113985
  H   10.49271149244359      6.87601744688731     11.12599413376828
  H   9.29346510844184      6.47073338125776      8.99974359081644
  H   8.20152738980521      5.96531387516523     10.29738867353018
  H   13.02531666140843      6.64178462944255     11.45160770978903
  H   13.21216287212842      4.95455817646930     11.93412324534474
  H   14.64770556640802      4.64470076750505      9.76814607545339
  H   14.68602374649262      6.39487596755279      9.64354758373440
  H   15.70149275796713      4.78986284951236     12.06513938611164
  H   15.95634847347302      6.53280477784787     11.77510075923891
  H   18.08919964070315      4.36731183884091     11.91284689719402
  H   18.87313396402754      4.79102627444487     10.35618628800511
  H   18.46983831096681      6.08205976188799     11.54409667128756
  H   12.96333334421781      6.14040226243026      7.98618896598160
  H   11.23319234974366      6.25950079702940      7.85909254726303
  H   11.44551201556128      8.09903643279135      9.82609262943680
  H   13.11195080180038      8.21890662545330      9.24798777437835
  H   12.24269293591903      8.64101761226903      6.91513648456226
  H   11.61046332580880      9.83864845434445      8.08214480300777
  H   10.38603635343524      8.92730510832202      5.49987872646673
  H   8.76082107694826      8.55611972222008      6.15147428857789
  H   9.57957124100522     10.10067417102433      6.59089685682399
  H   8.09936995388698      2.12617277013576     10.34914378097517
  H   8.30574154884857      3.58407584464230     11.33549040881069
  H   6.33014951862851      4.61963405474790      9.98640443918626
  H   6.08255496298296      3.01015950254355      9.28266967004320
  H   5.97326620176400      3.67493572995118     12.28041740621234
  H   5.77433759800426      2.04586201628198     11.57797781080837
  H   3.65781225219262      3.60150326332744     13.07065968021929
  H   2.40176768262921      3.31679106828773     11.82293642957624
  H   3.46349118461890      1.97031798617539     12.34924328143457
  H   8.71420748487368      3.50272956026248      6.80079035209195
  H   7.17379070264621      3.71850122291082      7.66171029052595
  H   7.49164311171940      6.20828860528811      7.60321814089330
  H   9.07968691965450      6.00632679907904      6.83972016627391
  H   6.42790437064283      5.04685016890000      5.61481524349740
  H   8.03873055114549      4.98583672231894      4.84402080272093
  H   6.61293555885110      8.07061610360579      3.62652053842337
  H   7.32868541453898      6.51443835785575      3.09300298704583
  H   5.68742250629445      6.54699400711584      3.81704381004960
  O   10.86643708317671      2.27833904516830     11.04686843194646
  P   10.66076702027498      1.06859196348736      8.22454773693800
  C   12.18782779736257      0.37467455806164      7.42118289439953
  C   13.32541282052368      0.46436344338159      8.45050289255522
  P   13.35042442030081      2.21800017434496      9.10808231840589
  C   14.57180512183461      3.00148235133524      7.92955305243076
  C   16.05769399186539      2.80467969631761      8.27258749915862
  C   16.96452019086095      3.50485086875601      7.26045915493941
  O   18.30604195947147      3.32846604206104      7.70506360588403
  C   19.23893485357918      3.95294853060289      6.82767882119489
  H   19.18194053473763      3.52893258649685      5.81000190677828
  H   20.23461394786617      3.76512532092240      7.24185867036341
  H   19.06724715768254      5.04187221135859      6.76580652020805
  H   16.83297420357512      3.08388371198118      6.24551262281253
  H   16.71302227569097      4.58100178099256      7.21352755212604
  H   16.31464807012280      1.73535759428905      8.30609687873412
  H   16.29572031647521      3.24166576733338      9.25023945648509
  H   14.32125601455011      4.06623336834708      7.84124780966112
  H   14.33369940406475      2.57405795142604      6.94468201383702
  C   14.24825275330804      2.03837610784212     10.73299191825596
  C   13.70770820837819      0.87946643306954     11.59397187997953
  C   14.05555489291365      1.04695017669392     13.07422477988471
  O   13.19485039833597      0.17859081879730     13.81168126475755
  C   13.52470128768439      0.14839490861267     15.20148177443082
  H   12.81624811879058     -0.53672944498340     15.67674658387616
  H   13.43028204831673      1.14868246136611     15.65801385135503
  H   14.55247424236025     -0.21756020087168     15.35964661598222
  H   15.11451610744859      0.80167484946908     13.26968281563502
  H   13.89658259780326      2.09517452765379     13.39674523543080
  H   14.10030364882154     -0.07986382258658     11.23665582848903
  H   12.61668431928709      0.82041095992759     11.51443473974044
  H   14.11755392663683      2.99120261899587     11.26523531253967
  H   15.32491299228903      1.91866319765336     10.55819223806613
  H   13.13649138025365     -0.23587969843903      9.27553224764221
  H   14.29938971227867      0.20761502974942      8.01055393055138
  H   12.39278886755873      1.00114996006264      6.54249557905050
  H   12.02726510587285     -0.65424998110682      7.07278657548825
  C   9.35324223705449      0.78168401633434      6.94129854728267
  C   7.93842096621855      0.82710815262788      7.54438875713226
  C   6.83348921810554      1.13382012336841      6.53148765555593
  O   5.70568128001904      1.56559672475764      7.29239941651058
  C   4.57423334454097      1.86489805672455      6.47341099989284
  H   4.80617054798811      2.66558863383977      5.75039530782388
  H   3.78286230356139      2.20057387752892      7.14983684248735
  H   4.23554064637646      0.97325113073640      5.92079626665076
  H   7.15286793288609      1.93224940335091      5.83633642221786
  H   6.57890008115040      0.24571922660989      5.92658009070583
  H   7.88743717036684      1.62026464770187      8.30106608923265
  H   7.70778324217434     -0.11232203323589      8.06449552455245
  H   9.54810777285481     -0.18266702611735      6.44942452346372
  H   9.49256508015208      1.56499515931961      6.18264691507132
  C   10.28065039361310     -0.20275460731092      9.52722382635001
  C   10.32922535534289     -1.69449292439323      9.14360737787712
  C   10.51569802669234     -2.54878714585544     10.40166410290030
  O   11.70018389151982     -2.08136032932774     11.04557430964906
  C   11.94058969754142     -2.73283692371634     12.29374059420100
  H   11.06004521081086     -2.65492927850115     12.95434592032355
  H   12.78233941774166     -2.21347206380585     12.75904489682458
  H   12.18120773145268     -3.79872649322594     12.14762473701091
  H   9.64876282351391     -2.44494611958736     11.08161081107104
  H   10.61075699273731     -3.61619048890197     10.13637997621657
  H   11.17972825652013     -1.89257662383767      8.47896716738315
  H   9.41761617591701     -2.00186078913379      8.61344510896006
  H   9.29140713693078      0.03368506080109      9.95651955702700
  H   11.01854445628307     -0.04424907476068     10.32379974533807
  C   11.06256868109973      2.76270621758236     12.39643558218927
  H   10.18966930986917      3.32879732663597     12.74391670923823
  H   11.93561955125019      3.41383700743030     12.35854232585325
  H   11.26198779263322      1.91071918327665     13.05801102907789
  H   10.00887950490178      1.81391331641230     10.99862456920248
