132
Coordinates from ORCA-job BAJKIH-OH_1_6_tpss_d4_lanl2dz_631gpol_Fe2.opt
  Br  11.58072566871341      4.02136284654728      6.90427964690524
  Fe  11.25556183679981      3.42142596717336      9.39877645747870
  P   11.54425044259756      5.88729817358018     10.02393099721387
  P   8.78504741224493      4.34497100456274      9.23716942388593
  O   16.24783691953593      4.50405690807240     11.04215765701523
  O   9.86852853581105      8.62401639887861      7.24248567696929
  O   3.80579306983873      3.62683056883111     10.73780048186983
  O   7.28858017128853      6.71451446775999      4.79556077047446
  C   9.92946860725433      6.35283209543803     10.80438618952479
  C   8.81173339018379      6.14544881065708      9.75564131232562
  C   12.86494275184789      6.15000254150807     11.29563045457803
  C   14.14712585841349      5.50475967454119     10.73807590412336
  C   15.30442165372280      5.33625106114385     11.71997621533586
  C   17.46211932322306      4.30228964648092     11.77113106956356
  C   11.79846292561287      7.12144504839353      8.68069593161985
  C   11.48576953623903      8.60252653058672      8.98349096376139
  C   11.03216436534491      9.30979194824244      7.70372820108313
  C   9.39162874223586      9.14530161181572      5.99688127119304
  C   7.55301986411339      3.68069419658449     10.48329227925607
  C   6.07712403238843      3.95818818748284     10.15068618421251
  C   5.12724259118788      3.44721777380921     11.23440047076297
  C   2.82093235296984      3.19006844296787     11.67154406348329
  C   7.98181320650655      4.27591855145933      7.55789805053929
  C   7.94011665046635      5.61947045586091      6.80796138680924
  C   7.40341761940471      5.42636962953172      5.38981105326472
  C   6.84943998408194      6.64542629736932      3.44083255435772
  H   9.79421356745203      5.68515059514016     11.66882060643911
  H   9.92712271046995      7.38406127805255     11.18278192359108
  H   8.99106654775227      6.78972755829898      8.88454926115739
  H   7.83257800806507      6.42504707247917     10.16990934298798
  H   12.99531498609973      7.21406944982235     11.53909339157930
  H   12.54064501938215      5.62153413945949     12.20356247948906
  H   13.88045967639854      4.49523407814209     10.39107792744215
  H   14.50801596395024      6.05445918494515      9.85745857893580
  H   14.96246786116231      4.85292350604845     12.65375853520256
  H   15.76089815967455      6.30596149087053     11.98526880025955
  H   17.27115622657474      3.79380616471993     12.73134210567461
  H   18.09408515643042      3.67446732839058     11.13558577210976
  H   17.96752752858666      5.26138863570082     11.96982660049599
  H   12.82644727115153      6.99311354509353      8.31267623260038
  H   11.15573309461659      6.77747707568765      7.85849017066802
  H   10.67073091283514      8.69561839243802      9.71395078646542
  H   12.36096812960082      9.11467648292127      9.40498195775899
  H   11.82405170018024      9.27493468926896      6.93315317389982
  H   10.80112832003431     10.37019396881669      7.90727849330165
  H   10.18907371221687      9.12403053186036      5.23509649109795
  H   8.56807084666480      8.50075259093457      5.67806575406330
  H   9.04074194672188     10.18398825364046      6.11483807277528
  H   7.71636593472220      2.60033124338784     10.60469351842190
  H   7.83393534676039      4.14638244923827     11.44338376579326
  H   5.90691096706993      5.03362276707056      9.99792846925203
  H   5.80587881265303      3.43350647912259      9.22784991274789
  H   5.26456700457491      3.99818746945233     12.18465316680024
  H   5.32194175856152      2.37649499049084     11.43742208740244
  H   2.88409864501314      3.75554968578485     12.61728504902315
  H   1.84686342723927      3.37028373919779     11.20657160901033
  H   2.92702695819747      2.11415928117612     11.89485012195177
  H   8.58614324808434      3.56086512414823      6.98206119496864
  H   6.96935495180853      3.86274944410833      7.65465146006437
  H   7.28937223753235      6.33203388126959      7.33242294528043
  H   8.94166765134775      6.06365366950056      6.74511759323560
  H   6.41593167238705      4.92522354558918      5.41018044592607
  H   8.09117180917154      4.78805399713787      4.80410476393726
  H   6.79400504397802      7.67557522740810      3.07616201453511
  H   7.55808912006459      6.07303364289412      2.81810544981648
  H   5.85275678046361      6.17761885599250      3.36688186300375
  O   11.14764940978593      3.06748985716124     11.23282891824611
  P   10.44738292645256      1.11259577252745      8.48727528275847
  C   11.93224889621863      0.43756420346119      7.59130618949330
  C   13.15156725861756      0.38498397642642      8.53313226970843
  P   13.45394110595817      2.05517685576958      9.31069291372920
  C   14.85855148166314      2.76861291920442      8.33000342289975
  C   16.24628245570319      2.19973909899748      8.67357877087571
  C   17.36842378317321      3.04703963947346      8.07077218633656
  O   18.58779302853456      2.60412526117428      8.66326851950464
  C   19.71979710775825      3.27536770784461      8.11408872837164
  H   19.81020923085179      3.08761521926663      7.03053493944743
  H   20.60046386166180      2.87535808468410      8.62608224486792
  H   19.66239572546248      4.36537251131661      8.27991881001707
  H   17.40897811656768      2.93762145025909      6.97135308041959
  H   17.19788325650971      4.11454670028337      8.30116755917444
  H   16.34497798317892      1.15828705001746      8.33725656572443
  H   16.39414311196386      2.21324882715358      9.75902963742799
  H   14.84901568875365      3.85135445447861      8.51033562183339
  H   14.59895950519565      2.63352121889315      7.26990363742000
  C   14.09673401273779      1.75027010517134     11.02503757419974
  C   14.73153997580845      0.37210813497766     11.28613432917146
  C   15.26356130996123      0.27584724741876     12.71578287793953
  O   15.67898319467479     -1.07132460120611     12.92373508348210
  C   16.23586194576220     -1.26585560857473     14.22245453151072
  H   16.52429217548882     -2.31943056247313     14.28544482816169
  H   15.50125761957202     -1.03759148126690     15.01419844432427
  H   17.12672135414430     -0.63262264772805     14.37244940588730
  H   16.11285550906076      0.96858156679383     12.86739731942397
  H   14.47468318487747      0.55273183793803     13.44181173976951
  H   15.55185634882480      0.17117357231080     10.58504303279373
  H   13.97991375430578     -0.41492216417137     11.15495832420755
  H   13.23341052226869      1.90925522933234     11.68719026371018
  H   14.81550771429758      2.56030668857113     11.22603891409824
  H   12.98096223880492     -0.35400780142541      9.32688884673066
  H   14.05094017143855      0.07009979086566      7.98583011719148
  H   12.11426293258023      1.11338188525126      6.74389437214546
  H   11.71469982662985     -0.56082420907176      7.18545261872923
  C   9.04685688523675      0.68005111554294      7.34618007102750
  C   7.69824881854184      0.88406031413130      8.05649937332040
  C   6.49201487469202      1.03707890477183      7.12807292218419
  O   5.45621524872257      1.58517669498270      7.94067489852053
  C   4.21770006032452      1.76366528248826      7.25031259638279
  H   4.34067130672175      2.42167144930733      6.37324477528549
  H   3.54025164760283      2.23223639144795      7.97027452913248
  H   3.80459302785885      0.79771430670219      6.91746762531009
  H   6.72651976898800      1.72003402222207      6.28992890120257
  H   6.18320147034048      0.06883817248760      6.69655596152602
  H   7.74304739575108      1.80541945250942      8.65129237322011
  H   7.50977686168361      0.06691949442137      8.76595181038136
  H   9.16623979862688     -0.35248028542335      6.98624117276401
  H   9.13927785374887      1.34281012830660      6.47262115003663
  C   10.27083439620685     -0.02013901869318      9.94206480889282
  C   10.25186534738576     -1.53482206158184      9.65419922316926
  C   10.70123941505991     -2.33557019269814     10.87800417486554
  O   12.03927304411583     -1.93873805268483     11.18093978579281
  C   12.57260706089389     -2.66087230469778     12.29721093048985
  H   11.96367148581998     -2.49063179827923     13.20136646869738
  H   13.58945098281837     -2.29121624079223     12.46206662526005
  H   12.59944731388070     -3.74262563997176     12.08647171720707
  H   10.04087414146434     -2.14022082796098     11.74345807768594
  H   10.66445907307206     -3.41785211870263     10.66238850939664
  H   10.93266823098585     -1.78507746214024      8.82869882277727
  H   9.24580551070487     -1.85842571569436      9.35291238141584
  H   9.36875177476197      0.28591822428977     10.49325818770453
  H   11.11510926228184      0.22072594827795     10.60375888692551
  H   10.27797398877895      3.04107368134427     11.67864476091767
