130
Coordinates from ORCA-job BAJKIH_1_3_tpss_d4_lanl2dz_631gpol_Fe2.opt
  Br  11.35555025477455      3.77285957847846      6.55793392001654
  Fe  11.02940166005586      3.21123548509990      9.02629522530294
  P   11.59117812426827      5.24042175887652     10.04065268413345
  P   8.90403561324164      4.11974555801689      9.10511113528919
  O   16.47734064872515      4.73301732126190     11.05614600130171
  O   10.26813897327735      8.30097777526556      7.41482124283919
  O   4.13872160204493      3.51030381387849     11.21238691459982
  O   7.34173755540709      6.82524863965067      4.92502189028334
  C   10.04982313042669      5.93590113460587     10.81585314492586
  C   8.94051661504943      5.87014878151214      9.75554177389848
  C   12.86450647882350      5.52131357158791     11.37042152450914
  C   14.29168268168403      5.55875885397375     10.79759081105344
  C   15.40562746438018      5.28316760607594     11.81644595352837
  C   17.65572621106159      4.47512070233775     11.82114696017683
  C   11.98474770123261      6.44687664110941      8.70552904538099
  C   11.95360387189477      7.94829146429060      9.05597424077605
  C   11.55979342799456      8.75625792084930      7.81581364585857
  C   9.83738633016553      8.90321704806393      6.18848879719710
  C   7.80201126935434      3.34655124765084     10.40440922192460
  C   6.29990641685313      3.64107995091685     10.24158490244871
  C   5.50304582634702      3.22184326916897     11.47800534552039
  C   3.29258619220356      3.14165744630839     12.29815689884598
  C   7.96110273174784      4.17899863104754      7.50706126349500
  C   7.97874656827203      5.56496922725117      6.83783288188615
  C   7.39808944346844      5.49390787780515      5.42642513074639
  C   6.89240037767297      6.87295722701922      3.57292063582029
  H   9.80691574165813      5.31755041699281     11.69350479124945
  H   10.20744444698020      6.96155252977317     11.17592614273261
  H   9.16241915590653      6.57168398851297      8.94070384816598
  H   7.96011450481409      6.13896595716546     10.17287777876518
  H   12.61983322540068      6.45564971916635     11.89696026467132
  H   12.76256642077586      4.70506256037023     12.10104103915541
  H   14.39768180017359      4.78323035985500     10.02986994690406
  H   14.47468732333068      6.51563231347178     10.29274888140593
  H   15.06808339501685      4.55904117042038     12.58409885024830
  H   15.72095506891299      6.20095366731656     12.34246906178782
  H   17.44426636827996      3.79601252066594     12.66536065699109
  H   18.35606124409607      3.99707398827101     11.13104245251545
  H   18.08733454350235      5.40926392096420     12.21611948755882
  H   12.94931846349230      6.15160551595721      8.26987322246873
  H   11.24730478019610      6.24107515098652      7.91823759069269
  H   11.21258841382200      8.16487778579221      9.83743279967503
  H   12.92804628035428      8.29029029774472      9.43033054606206
  H   12.28762258765224      8.59846479319161      6.99900753345106
  H   11.53536714243530      9.83553920187454      8.04750456705433
  H   10.58358701914925      8.74045542804784      5.39304411006792
  H   8.89895714899920      8.41755046252113      5.90791037473720
  H   9.68292787269818      9.98730155268680      6.31677096077959
  H   7.98317226249139      2.26429284792277     10.43912558792531
  H   8.17445173137893      3.74433142324888     11.36287385297832
  H   6.13165747852163      4.71382749551194     10.06596473186598
  H   5.89735744000442      3.09658474158684      9.37770439741336
  H   5.85207507250675      3.77070731506428     12.37500476776007
  H   5.64305494122831      2.14121172162359     11.67732972433930
  H   3.55605327114784      3.69024080962256     13.21930500230382
  H   2.27185470188019      3.40130272458059     12.00149382155426
  H   3.34979064488566      2.05833553112726     12.50331674132547
  H   8.46719883079673      3.46117268542918      6.84863924217371
  H   6.93077072415311      3.83432456620886      7.66693960167798
  H   7.38778078444864      6.28317023830303      7.42205641824930
  H   9.00495332966835      5.94746495176129      6.76991354688713
  H   6.38524637166706      5.04575040734582      5.43837284834096
  H   8.03872972117243      4.86247467706931      4.78328530573941
  H   6.88417514386737      7.92778558162574      3.28201007769700
  H   7.56934298957439      6.31296043243909      2.90520428495819
  H   5.87388029716825      6.45960140315585      3.47425564969796
  P   10.40323746373138      1.08055483556336      8.37199730336223
  C   11.89363190220787      0.32710512102723      7.56852747401541
  C   13.04600834851047      0.42254436492244      8.57933214414765
  P   13.09056967866687      2.17663307324986      9.22931511395769
  C   14.45158605496313      2.92303729383961      8.21137106804583
  C   15.87503786847357      2.54219368075520      8.65734919917205
  C   16.93829249723846      3.35145137035292      7.91345401097680
  O   18.19950795247145      2.99372938812887      8.47111369088851
  C   19.27570541336491      3.66295460447851      7.81727322295062
  H   19.31436382219075      3.40781682182376      6.74434887957396
  H   20.19645521179345      3.32507863645242      8.30295971635976
  H   19.18878545968393      4.75889537959321      7.91709371781839
  H   16.91869130695705      3.13640760989951      6.82870435311089
  H   16.75140565614880      4.43258369945093      8.04967440436919
  H   16.06014102118229      1.47090173543913      8.49661437227773
  H   16.01517669517665      2.75483083284238      9.72336117278560
  H   14.31164946530390      4.01203899267681      8.21247939305285
  H   14.24447213834181      2.60958858426243      7.17782059069992
  C   13.71814896352337      2.04671432671738     10.98041493970343
  C   14.43746868271587      0.73836138578860     11.35299998218992
  C   14.93358874516414      0.77267546883425     12.79868179739415
  O   15.40816952077804     -0.53229664065663     13.11179686755220
  C   15.94329531837463     -0.60650583692077     14.43263985103851
  H   16.28047380144019     -1.63723548706024     14.57611636839492
  H   15.17949755136698     -0.36015708303117     15.19041210856811
  H   16.79861303526437      0.07937934627811     14.55429919866007
  H   15.74218337817299      1.51808668747478     12.92108942266299
  H   14.11140563339765      1.05891519203517     13.48406648614510
  H   15.28770913672408      0.55450871461515     10.68421926249576
  H   13.74649521545355     -0.10625620918187     11.25607270728485
  H   12.84240348561609      2.18720219999729     11.63250600257141
  H   14.38187193186546      2.90554494909294     11.14584314912111
  H   12.87847541637973     -0.27815148371181      9.40737544868378
  H   14.01294342726567      0.17136317725207      8.12339417944601
  H   12.09389138960813      0.92820685535139      6.67051834626217
  H   11.70729927166806     -0.70943787262538      7.25580028212454
  C   9.04433021895019      0.68768518615003      7.17775651039235
  C   7.64435070281917      0.86101426276213      7.78989935452720
  C   6.53942468988811      1.08210788173753      6.75482247540539
  O   5.42885339298041      1.62053150890155      7.46850590447207
  C   4.30337045570643      1.87077754910552      6.62499290912558
  H   4.55412885661299      2.59474697471975      5.83065543305329
  H   3.52267942458225      2.28772099801264      7.26757510715398
  H   3.94083716689150      0.94037428616565      6.15827724274461
  H   6.87692484277156      1.79395677063384      5.97841846378038
  H   6.26094594430359      0.14118750055027      6.24814031299294
  H   7.63267700394050      1.74527566991273      8.43724978262791
  H   7.39128840931197      0.00505045792056      8.42957547188632
  H   9.19537146443615     -0.33478694690732      6.80132286932116
  H   9.19446358685880      1.37032417442976      6.32769469217235
  C   10.10881733270788      0.01309151875905      9.86155754915501
  C   10.15316610581821     -1.51726340168266      9.66595372649812
  C   10.58600984175115     -2.21738581934953     10.95647249447354
  O   11.88743747796594     -1.73016126179449     11.29121560963790
  C   12.40952944275789     -2.35656938878127     12.46949377418289
  H   11.75052648060028     -2.17420202775275     13.33521240565843
  H   13.39440968430311     -1.91684435800028     12.65582409367223
  H   12.50968383589022     -3.44424580029023     12.32279286027907
  H   9.87858257251334     -2.00585324986466     11.77961241451633
  H   10.61583556969200     -3.31054024456813     10.80746757932584
  H   10.87471761659473     -1.79242630580184      8.88515434826429
  H   9.17244320135676     -1.89845948206651      9.35074341670126
  H   9.15284563499554      0.32184551222979     10.30950367800098
  H   10.88656132717313      0.30078293238104     10.58397159032417
