61
Coordinates from ORCA-job BALCOJ-OH_0_4_tpss_d4_lanl2dz_631gpol_Mn3.opt
  Mn  10.93985158987848     -0.03835232376259      3.65876761528761
  N   12.08815816963314      0.86838774188986      4.97442343270114
  N   12.47951715954014      2.97025492055071      3.81378180861237
  N   10.99833460079367      1.53353003140027      2.51482795471716
  N   9.51516427073916      0.82695527189437      0.71259429123675
  N   8.44453928530863      1.13840951736865      5.21182809367871
  C   12.52287786362340      0.33873394579891      6.17442117197552
  C   13.41061762844064      1.29180615872257      6.82213421447746
  C   14.10964374492192      1.24935394016684      8.03279121557433
  C   14.89088537247761      2.36280695067208      8.36334941037434
  C   14.96928742661907      3.48487308997139      7.50834242713482
  C   14.26804302446290      3.52613322682806      6.29788740624930
  C   13.48899642450117      2.41224436875021      5.96907375321835
  C   12.64752109102440      2.12027823712402      4.81948802024477
  C   11.71349677962137      2.69236589970096      2.76792354342263
  C   11.50398263753703      3.62624153524485      1.67549721876656
  C   11.99685233259589      4.91465571955881      1.44076941287679
  C   11.58908114275675      5.55299322703489      0.26507961493937
  C   10.71349929022518      4.92163752039262     -0.64861730974393
  C   10.22132130209998      3.63400888835973     -0.41258591157185
  C   10.63070804842243      2.99630495975388      0.76389952390506
  C   10.32312851920920      1.68824175298234      1.31542926709062
  C   9.37386623110902      0.70185608187433      4.63251151130015
  H   14.04141444082908      0.38261673888020      8.68610346024555
  H   15.44958289044918      2.36821790742800      9.29782911105279
  H   15.58721716015435      4.33230063241742      7.80061517986707
  H   14.32023090528724      4.38548097938034      5.63346889330590
  H   12.66852245061897      5.39194468364570      2.15032709538612
  H   11.94966422377392      6.55652353285585      0.04542382385352
  H   10.41827504774208      5.45224599024019     -1.55231688613720
  H   9.54673368442304      3.13979196369277     -1.10767502791458
  N   9.66744638362631     -0.89206564104758      2.42522416787515
  N   9.26908959313691     -2.99251569795308      3.58965779203235
  N   10.83122759866839     -1.60099073764362      4.84443937456485
  N   12.21538165117882     -0.83862313190608      6.70360231945128
  C   9.22586050087152     -0.36010358642875      1.23128562787720
  C   8.34821095054451     -1.31820887109231      0.57696847630486
  C   7.64705267350257     -1.27317325201525     -0.63221210910310
  C   6.87232920825299     -2.38967962086319     -0.96791214615088
  C   6.80126040529908     -3.51643696969812     -0.11849597473117
  C   7.50340671682673     -3.55950789749144      1.09138300864566
  C   8.27740949582316     -2.44331354215643      1.42441332860525
  C   9.11200643974718     -2.14829255743312      2.57819443586133
  C   10.03921083800785     -2.71961819284060      4.63562231552784
  C   10.15878859133398     -3.60454890936720      5.77975111964204
  C   9.58666579520321     -4.85092088426115      6.06048306640207
  C   9.90819630071946     -5.44360962124609      7.28531615594722
  C   10.77562950348322     -4.80807345083967      8.20444647325549
  C   11.34524830619695     -3.56234304978560      7.92432929691162
  C   11.02421713851537     -2.97017920528257      6.69690560251432
  C   11.41833843315595     -1.70887256791978      6.09615798457382
  H   7.70605628301955     -0.40075473545310     -1.27875238106978
  H   6.31110842362934     -2.39280630232528     -1.90087146739647
  H   6.18638587198599     -4.36515765286935     -0.41345725181294
  H   7.45300587261749     -4.42073250851484      1.75356006745460
  H   8.91696059676395     -5.32873731493134      5.34936142980349
  H   9.48231673860325     -6.41208429841989      7.54228043151018
  H   10.99899058789181     -5.30055476580043      9.14940994130572
  H   12.00881529916023     -3.06272354426111      8.62621386189368
  O   12.38477095380061     -0.74030542792329      2.77538653009481
  H   12.66266810961409     -1.58660915304799      3.18596518608215
