59
Coordinates from ORCA-job BALCOJ_0_5_tpss_d4_lanl2dz_631gpol_Mn3.opt
  Mn  10.58857519644940      0.14311263451389      3.86423930987983
  N   12.02482541342350      0.89553434237480      4.98818932586930
  N   12.45042210028791      2.99417735583989      3.82147069424928
  N   10.93272753306980      1.57198650890806      2.54872946306387
  N   9.49151708045346      0.84768837028305      0.71924069896292
  N   7.99513997870472      1.47168759434869      5.32770335279432
  C   12.47509309593715      0.36396369259676      6.18721412762311
  C   13.38065245041671      1.30488394316321      6.82192678028232
  C   14.09923132508143      1.25087272468959      8.02191769275317
  C   14.89770386144840      2.35366618351228      8.34210685055399
  C   14.97803302684725      3.47682860325762      7.48660104780181
  C   14.26204788578727      3.52865204012808      6.28647501576999
  C   13.46125089500526      2.42568174851730      5.96844472245577
  C   12.60413472612337      2.14538238545415      4.83079716075641
  C   11.68421105174044      2.71536195691138      2.77350357583509
  C   11.53195426797554      3.62079928671138      1.64905544295088
  C   12.07508481495539      4.88312755063981      1.38419915214248
  C   11.71698247360927      5.49552230676168      0.17887143631640
  C   10.84373842769866      4.86287484058801     -0.73609482172467
  C   10.30410667494953      3.59996305832462     -0.47184080488839
  C   10.66078756771288      2.98936290307581      0.73619506669845
  C   10.29967977967169      1.71118776640135      1.32260299415000
  C   8.95006915115901      1.00064996299800      4.81600073581413
  H   14.02996016144001      0.38350583925450      8.67420992824039
  H   15.46918445853796      2.35211771478196      9.26885235678908
  H   15.60964618134371      4.31629405894316      7.77261968115739
  H   14.31605907276002      4.38794572225144      5.62213960974016
  H   12.74496652316941      5.36164487955574      2.09468080422624
  H   12.11491342920243      6.47961361582045     -0.06326547769665
  H   10.58780117541686      5.37310684756530     -1.66325035345470
  H   9.63123261787850      3.10524107287123     -1.16829738874829
  N   9.61781185024625     -0.85063129220352      2.46366944711140
  N   9.21347632980447     -2.96047207690872      3.61757235159954
  N   10.70438062475266     -1.52453405607867      4.90674141936896
  N   12.17275256548717     -0.81398958264126      6.72006405870843
  C   9.19089273994226     -0.33103571098124      1.25101622612525
  C   8.33274888088423     -1.29669480609361      0.58811853410748
  C   7.65971853287012     -1.26598828752944     -0.63875726156249
  C   6.90152679150300     -2.38973841092708     -0.98312243359341
  C   6.82086541313827     -3.51297552736421     -0.12774186250958
  C   7.49613320252725     -3.54395863051377      1.09647210802757
  C   8.25189826362756     -2.41756425928096      1.44144182560516
  C   9.06151654755238     -2.11259738279854      2.60713219723912
  C   9.97722981973779     -2.68068443210050      4.66706991332056
  C   10.17618147648830     -3.61046778067678      5.76403830404061
  C   9.67943396519781     -4.89713096599899      6.00178988552038
  C   10.07911099363516     -5.53107060538439      7.18262201405213
  C   10.95252253879134     -4.89841330145711      8.09744489601388
  C   11.45075168302696     -3.61386505342202      7.85748190279963
  C   11.04750968647751     -2.97903872945501      6.67689809760385
  C   11.36219509499056     -1.67647607869481      6.11828689476197
  H   7.72696950962733     -0.39729277187847     -1.28948423611734
  H   6.35977570229712     -2.40347407809564     -1.92745363909662
  H   6.21874607711950     -4.36774999597042     -0.43146461593599
  H   7.43943903579645     -4.40200318915001      1.76219045420965
  H   9.00735290679948     -5.37469696064418      5.29275154282448
  H   9.71159042128547     -6.53109458076399      7.40689510765539
  H   11.23901498030008     -5.42462483936288      9.00655573014406
  H   12.12172196783577     -3.11797412466693      8.55493295761158
