60
Coordinates from ORCA-job BALCOJ-oxo_0_1_tpss_d4_lanl2dz_631gpol_Mn3.opt
  Mn  11.11852555749407     -0.09138190979418      3.51864257948969
  N   12.14547664340120      0.86753639498565      4.89819755783816
  N   12.52506682865152      2.97777327534415      3.76748932404293
  N   11.08520677418718      1.49525702789769      2.45454188174659
  N   9.56305827857244      0.82779568056365      0.65769407228350
  N   8.60101695440759      0.99642458329382      5.18937452947518
  C   12.52225921612916      0.34937911554025      6.12994880136436
  C   13.34944105707973      1.32628367328292      6.81897655277360
  C   13.98706365523580      1.29897462711440      8.06438178519052
  C   14.71744792915317      2.43252296753500      8.43617531641213
  C   14.80681938004719      3.56028258239081      7.58785817738018
  C   14.16818674916998      3.58666029946881      6.34341270960162
  C   13.43823461670536      2.45210027078167      5.97373378244560
  C   12.66909089167337      2.13321757945014      4.78379658034048
  C   11.78221396933398      2.67639964286262      2.71444294360899
  C   11.57266368991279      3.60362015671601      1.62251966212396
  C   12.05935160136917      4.89722647616775      1.39204149834392
  C   11.64970404005604      5.53586125040460      0.21955879402004
  C   10.77575631964337      4.90228944397075     -0.69807175200099
  C   10.28932399426630      3.61381104170322     -0.46688669123960
  C   10.70265105102855      2.97251259352260      0.70869074937208
  C   10.39294211005848      1.66813974990218      1.25476604331716
  C   9.52646372019105      0.59490212663840      4.57873589361319
  H   13.90978279169230      0.42745278047420      8.71008871506823
  H   15.22758723250458      2.45159319935765      9.39781360340964
  H   15.38336272033195      4.42423246931529      7.91435807769569
  H   14.22935987770390      4.45007592543803      5.68509813242173
  H   12.72672705465740      5.37534269951889      2.10501428338858
  H   12.00454428873540      6.54196763104897      0.00252742553776
  H   10.47867531802183      5.43558794420954     -1.59951269346288
  H   9.61544456554964      3.11910134158372     -1.16221009140946
  N   9.73955634871728     -0.88116096973685      2.36847138758202
  N   9.27703955126896     -2.96526067696856      3.57471992741318
  N   10.80417186056044     -1.58491509277824      4.85332724174028
  N   12.22292780464057     -0.82499057778277      6.66751796301238
  C   9.25348831517682     -0.34642949783516      1.19729943372225
  C   8.31093885721442     -1.27064510219697      0.59315431545983
  C   7.55980341986360     -1.21171597050380     -0.58592946495535
  C   6.73307327056052     -2.30246113705431     -0.87480838989039
  C   6.65956063933583     -3.41962892005781     -0.01039082723378
  C   7.41123318088255     -3.47707632855323      1.16719342907691
  C   8.23822618052239     -2.38515173801441      1.45492630860770
  C   9.12991378184756     -2.11444212200978      2.56912329877298
  C   10.05618621579887     -2.71015466060247      4.62125624847445
  C   10.20778716335519     -3.62512610397916      5.74583086617920
  C   9.66412571027867     -4.88439030819265      6.01115413161038
  C   10.02188069781629     -5.49814915075266      7.21895505466032
  C   10.89300032550581     -4.86620194112315      8.13203397120292
  C   11.43303183771972     -3.60101996125913      7.86573016379132
  C   11.07852112274412     -2.99314849999929      6.65850144118294
  C   11.43388109870753     -1.70941065469657      6.06597490891823
  H   7.62043285109499     -0.34795285217927     -1.24383397809554
  H   6.13058513882256     -2.29440578543797     -1.78161849039320
  H   6.00264028151747     -4.24803273338903     -0.27021350569660
  H   7.36106752676926     -4.32955348225089      1.84048527707512
  H   8.99006111107151     -5.36181978620113      5.30372005142049
  H   9.62041354262106     -6.48062010085616      7.46182683104055
  H   11.14674570281567     -5.37320238145320      9.06153360663082
  H   12.10137276738205     -3.10419745611908      8.56520867831674
  O   12.31698481842247     -1.01517864870549      3.05585187618070
