61
Coordinates from ORCA-job BALCOJ-OH_0_2_tpss_d4_lanl2dz_631gpol_Mn3.opt
  Mn  10.95821784356701     -0.05644043228423      3.65652391148164
  N   12.09475186445625      0.85602208777183      4.97187807688644
  N   12.47479859882503      2.96400011573052      3.81922204839056
  N   11.02157454725242      1.52280138479807      2.50451434888392
  N   9.52800179887718      0.81742324054575      0.71699588415508
  N   8.45364929275471      1.14785574609929      5.19073404664111
  C   12.58477941665247      0.30225000487084      6.12941878593849
  C   13.56242014771236      1.20908989039056      6.72944907909311
  C   14.33184343507518      1.12901493053372      7.89059198793375
  C   15.17976491429958      2.21013408015565      8.17892460303408
  C   15.24623705556566      3.33497334917899      7.33224183580092
  C   14.46622125509028      3.41447294129214      6.16912241519504
  C   13.63013345398417      2.33372216541737      5.88218935391366
  C   12.69044897481914      2.08574755257871      4.79323464857664
  C   11.66745649805608      2.70359601003748      2.79443106511216
  C   11.35736120488708      3.69475653777581      1.76839196213655
  C   11.76386712146211      5.01776249006089      1.58825984599422
  C   11.27138724392118      5.69548954677858      0.46260423156320
  C   10.40394957634979      5.06259566896407     -0.45089804351682
  C   10.00114538581725      3.73105393107445     -0.26832511191204
  C   10.49033169667832      3.06203360031859      0.85476400891882
  C   10.29454894730410      1.70239083667250      1.34820904024474
  C   9.38628405586877      0.70328086819666      4.62054307739314
  H   14.27025791841152      0.26128382300370      8.54339068599435
  H   15.79752750942311      2.18249975694452      9.07500657782699
  H   15.91498605877256      4.15492862969282      7.58846134686731
  H   14.50490602305945      4.27981341923691      5.51146381318206
  H   12.43468837470683      5.49753227108899      2.29714798073938
  H   11.56190966369613      6.73025760603812      0.28941568657672
  H   10.04065069030891      5.62015651526462     -1.31248197124369
  H   9.33384417197904      3.23278587447296     -0.96770100695977
  N   9.67652420817219     -0.90119907997948      2.43050969288028
  N   9.28129720509894     -2.99818153216877      3.58876545907293
  N   10.85739963423744     -1.62426372601419      4.83540968262515
  N   12.23878806946817     -0.85535625702137      6.68703815138273
  C   9.28478846423222     -0.39223889345103      1.21155814055248
  C   8.50177912161555     -1.39429770128010      0.49448426512188
  C   7.87573448903933     -1.37973082931399     -0.75350832900005
  C   7.17509888722191     -2.53314067797323     -1.13698521567702
  C   7.10175182649881     -3.65774525761328     -0.29058270437337
  C   7.72599626209009     -3.66535588767443      0.96671700945821
  C   8.42679188720987     -2.51877983553994      1.34134077962919
  C   9.17250758075504     -2.17320905649040      2.55014308766298
  C   10.00967963207876     -2.69962608365300      4.66068130672536
  C   10.01777989129358     -3.52525722668363      5.86211969181451
  C   9.35804594805420     -4.71256701861652      6.18832845384625
  C   9.59389679385567     -5.25175509548964      7.46057080071727
  C   10.46573834209848     -4.62096158551779      8.37313350982438
  C   11.12866584772499     -3.43122523088844      8.04203302979675
  C   10.88923053276951     -2.89450830556528      6.77447799233019
  C   11.39047085993803     -1.69928561459963      6.10665963791754
  H   7.93384386657439     -0.50467980946656     -1.39669100600028
  H   6.67792273954594     -2.56259976312005     -2.10509115354673
  H   6.54777274909584     -4.53532646672317     -0.61962118681844
  H   7.66782983348316     -4.52612617426115      1.62897399635254
  H   8.68583747148601     -5.19020525353812      5.47930405584687
  H   9.09372363635420     -6.17287687126877      7.75480190583136
  H   10.62153175747255     -5.06731627516969      9.35388028423393
  H   11.80022577538028     -2.93581282149203      8.73940062349791
  O   12.39210834710133     -0.74963288403740      2.76799041700814
  H   12.64836360041882     -1.61872322808984      3.14248340644494
