68
Coordinates from ORCA-job CAWWUV-CH3OH_2_6_tpss_d4_lanl2dz_631gpol_Mn2.opt
  Mn  11.37244286866045      8.94610582339411      9.82810714096986
  N   10.41424191409835      7.09821384782669      8.90070247920923
  N   13.08366759235090      7.49489652595054      9.38375106427345
  N   11.49802105216734      9.23088006974666      7.56823372761714
  N   9.20398139869595      9.47479429207008      9.82263271722253
  N   10.76657637353992      7.76470801522927     11.61783000773899
  C   11.37970215372443      6.81757037042724      7.79499357441932
  H   11.09784905843071      5.93757597906333      7.19765825031379
  C   9.05082135444976      7.47777932914139      8.44055789533070
  H   8.41196216204550      6.58876240527817      8.33523458691641
  H   9.13900701543954      7.93989128634366      7.44935542975630
  C   10.35755117988364      6.04316775078025      9.94914474047930
  H   11.32986568881510      5.53568054587034      9.97939713542999
  H   9.59753083389874      5.28725076288574      9.70338591796232
  C   12.75716071347142      6.60337786236790      8.41586601059228
  C   13.62468257604729      5.58781380436902      8.01026379990558
  H   13.32714619410766      4.88828385769769      7.23196215239287
  C   14.87603139296072      5.48386980397007      8.63397757626396
  H   15.57151651960339      4.70028596004718      8.34167805735639
  C   15.20956548868279      6.39156899732298      9.64602487505866
  H   16.16411404858585      6.33524840961871     10.16277622310326
  C   14.28250411115013      7.37923941631712      9.99108984407869
  H   14.48943878190723      8.10290596527688     10.77695096367285
  C   11.44277444592007      8.05246948867436      6.90002516995902
  C   11.46554615017957      7.98148237999475      5.50618151973189
  H   11.41552260937790      7.01797645601561      5.00339969956785
  C   11.54257930492626      9.17433214104163      4.77349722767483
  H   11.55900278362886      9.15000030188554      3.68618118757961
  C   11.58343029125717     10.39359629102131      5.45987199461426
  H   11.63023314273450     11.33990536842180      4.92727284049543
  C   11.55585811108046     10.37569465879016      6.85727973548709
  H   11.57621734645884     11.29573942636998      7.43789112347624
  C   8.41453666375257      8.48314820561989      9.38523653678840
  C   7.05132549567562      8.37929700347512      9.74098172059109
  H   6.45464627096873      7.55645690238877      9.35399442011944
  C   6.50130721554966      9.32315614786437     10.59134557986804
  H   5.45881384586561      9.25315594552884     10.89759329814393
  C   7.29948752755587     10.39428537781967     11.06599141344478
  C   8.66772842084022     10.44935134126415     10.63327176657905
  C   10.08732792797495      6.64849571563787     11.31608876411536
  C   9.18840217858675      6.03494018463784     12.21643259475142
  H   8.66598344973883      5.12776335189761     11.92165315768583
  C   8.97587224204965      6.61169027166397     13.45696053237541
  H   8.27096791173380      6.17063204819428     14.15987960673303
  C   9.68301327927870      7.78580159845527     13.81884561180415
  C   10.60478258461635      8.33092968211587     12.86191782129671
  C   6.80582085229791     11.40668519839534     11.93495034655440
  H   5.76879188410176     11.36000980367023     12.26245666510614
  C   7.62885411356366     12.44102806938401     12.34148576932262
  H   7.24642550426308     13.21812072603192     12.99906212032460
  C   8.97128682731469     12.50988702878074     11.88316801755605
  H   9.59523210337109     13.34838433966017     12.18603521489538
  C   9.48186052481041     11.53323369843192     11.04577702298877
  H   10.49565493614744     11.60275218005569     10.65156610905657
  C   9.52346433639783      8.43410834577309     15.07499904780840
  H   8.82202831080029      8.01922810572161     15.79663812802452
  C   10.26122662617732      9.56422723235327     15.37690408388275
  H   10.14308530492695     10.05303220423470     16.34107816992341
  C   11.19550056523217     10.08035955052305     14.44007961915386
  H   11.79047621142806     10.95178627846978     14.70608499557169
  C   11.36408450787470      9.47670293476819     13.20590386625749
  H   12.10944128399803      9.83984549314636     12.49819775100226
  O   12.80134077791478     10.59712818341704     10.15402181006533
  C   14.01691221158625     10.86955321653448      9.38313396037784
  H   13.94921245358309     11.86051502018252      8.92258284574329
  H   14.89258247168889     10.80654682544205     10.03734397597570
  H   14.05851741305316     10.09500639104216      8.61601664240028
  H   12.71834110700006     11.26584780420736     10.86193634506128
