63
Coordinates from ORCA-job CAWWUV-oxo_2_4_tpss_d4_lanl2dz_631gpol_Mn2.opt
  Mn  11.22850672732600      8.80476599467920      9.81509475468690
  N   10.36242946509991      7.09707564519101      8.94519656847990
  N   12.86882944297677      7.67074366309819      9.51440223894582
  N   11.42257296360294      9.24947297815693      7.86029889719708
  N   9.31828895470407      9.48075862059914      9.84656490783497
  N   10.80617239161618      7.85172060221975     11.55341190807597
  C   11.36788980955053      6.86239041272119      7.84491978878120
  H   11.13352247905687      5.99292043381333      7.21824108646075
  C   9.00347942628095      7.48226315048980      8.46923145329599
  H   8.33034638431886      6.61512726950275      8.46540558245838
  H   9.09000189160889      7.83127372737888      7.43141703256835
  C   10.32810386760557      6.03336360568258      9.98901477959222
  H   11.26495720986197      5.46370335204393      9.92710562841020
  H   9.50535442697895      5.33078247322241      9.80434742892079
  C   12.71508447200391      6.73401670553345      8.54154861041721
  C   13.73323561433488      5.84205472083261      8.21975781901517
  H   13.59144694347249      5.09806757480197      7.43959129998514
  C   14.94209560303544      5.93077397568918      8.93049913979106
  H   15.75600170626907      5.24549339044811      8.70521662368948
  C   15.09305443996579      6.90791119325027      9.92175044708956
  H   16.02152896815221      7.00735056554493     10.47731937293234
  C   14.02919052896469      7.77443750319068     10.19059799003901
  H   14.07391685376392      8.57129194277718     10.92715182138131
  C   11.41775558332428      8.15865070914346      7.04916961613388
  C   11.53132025120578      8.27596953766284      5.66731024899463
  H   11.52476073744227      7.39167076752845      5.03471197843617
  C   11.65604560246191      9.56341870003758      5.11875998162878
  H   11.74513528571910      9.68892341657191      4.04212774458220
  C   11.67302761492788     10.67842568391412      5.96531883908859
  H   11.78290705360046     11.68421534864356      5.56921693213388
  C   11.55711336115335     10.48708344671482      7.34537792685549
  H   11.58536072054938     11.29662417408247      8.06874489565233
  C   8.43925344629391      8.60574536904791      9.30942691724411
  C   7.04540393366971      8.74517803539363      9.43517964357387
  H   6.39033059605483      8.00308438930082      8.98559729046696
  C   6.53623664875674      9.82823949619905     10.13043203729321
  H   5.46177699645998      9.95254259434542     10.25332046181170
  C   7.41632664690081     10.78946253992654     10.67725265843360
  C   8.83823314814650     10.60440870594273     10.51363417235379
  C   10.22652626028044      6.64435652907565     11.36799042017408
  C   9.61126607175586      5.92147062708936     12.40540591308155
  H   9.15557712334954      4.95824922364708     12.18972834000041
  C   9.59726517114054      6.45487282159473     13.68256729306185
  H   9.11406909090041      5.92280297182811     14.50017744487651
  C   10.22374074521522      7.69668750523171     13.93236022173472
  C   10.84952623907879      8.39430369236655     12.83475838288898
  C   6.93356237197438     11.93383591197840     11.37067424113503
  H   5.85863601465080     12.05551292978754     11.48926965138412
  C   7.81522514675947     12.87506579389732     11.86636355483932
  H   7.44498755809835     13.75394841867570     12.38862024165606
  C   9.20927968272326     12.69938168139466     11.67676121712534
  H   9.89790754987283     13.45542375822134     12.04853774475733
  C   9.71793839688395     11.58863044471997     11.02078933926647
  H   10.78558420799641     11.46240297629032     10.86760489792023
  C   10.25935384503215      8.26517549545422     15.23582893934032
  H   9.77795559282849      7.72839750178287     16.05100775759620
  C   10.90631788831928      9.46547681738638     15.45809174263402
  H   10.94012830689514      9.89531220873026     16.45627436342729
  C   11.54225543773875     10.13040285425776     14.37924781182672
  H   12.06948654836510     11.06407526202191     14.56431760747123
  C   11.51421144816080      9.61560403376818     13.09201042210920
  H   12.00705087454654     10.12393960671651     12.26851986459454
  O   12.12565023021504     10.12586851876030     10.28812606236589
