62
Coordinates from ORCA-job CAWWUV_2_6_tpss_d4_lanl2dz_631gpol_Mn2.opt
  Mn  11.37204802762403      8.99442055300418      9.87501035360175
  N   10.46534664437132      7.20664545245772      8.96237400542833
  N   13.14096580768208      7.68735468118463      9.47811158529046
  N   11.58549654763649      9.39176158947591      7.69062125296856
  N   9.28960000008522      9.59826182390539      9.85188177506620
  N   10.85023762324730      7.87280217296484     11.65791951344428
  C   11.46580094401113      6.96957842203953      7.86829707908138
  H   11.21299975986894      6.09469467974391      7.25285338936711
  C   9.10343688182074      7.58735256417898      8.48532667271499
  H   8.45627669904236      6.70200622276196      8.41623065389936
  H   9.20171359802669      8.00058828011728      7.47299057192459
  C   10.42027141498922      6.13714086254841     10.00250023335996
  H   11.38124568256757      5.60672407895950      9.98446312261056
  H   9.63583127503627      5.40385374111288      9.76986387666395
  C   12.83937811999024      6.78264676820264      8.50957959802804
  C   13.73801140297817      5.79589008069991      8.10403767779614
  H   13.46037534297916      5.08556066018546      7.32839619033609
  C   14.99720602809562      5.73869617825430      8.71921008110688
  H   15.71775219556256      4.97938632529914      8.42385728281957
  C   15.30817538810054      6.66482187873378      9.72084826909348
  H   16.27105715518147      6.65032785781069     10.22447803237690
  C   14.35039811247379      7.61983284040678     10.07417888433712
  H   14.54499309603045      8.35305562436988     10.85384314951201
  C   11.53060911310028      8.22340553042962      6.99837095334324
  C   11.58250166029127      8.17897273352989      5.60519709428395
  H   11.53100977984520      7.22580605279097      5.08355183310110
  C   11.69806363255267      9.38430071348684      4.89735031932598
  H   11.74098286886845      9.37959849284097      3.81058293664544
  C   11.74946670133261     10.58890838965267      5.60728628434556
  H   11.83484174269564     11.54350528628154      5.09499071915058
  C   11.68479698219811     10.54929633991898      7.00312160027611
  H   11.71099533065047     11.46106170941958      7.59588854105266
  C   8.47165072750264      8.64654000985347      9.37531744356437
  C   7.08254102835975      8.64994066626169      9.62696876120967
  H   6.45748813313968      7.85840646983852      9.22028964026786
  C   6.53788430184266      9.66612542010652     10.39560859782572
  H   5.47096896646673      9.68318528073653     10.61159461582068
  C   7.37025228563122     10.69396101369426     10.90654579746038
  C   8.77164100088171     10.63010923963476     10.60029205385064
  C   10.21918963133447      6.71830614165321     11.39311006321181
  C   9.45152032137989      6.03721890470814     12.36267894074734
  H   8.95855469690473      5.10320758205561     12.10342696325378
  C   9.33549876154738      6.57742523200445     13.63342678757089
  H   8.73990833223252      6.07549505787501     14.39409264193000
  C   9.99312727098487      7.79281530547266     13.95077136091814
  C   10.76581502388963      8.42166990893501     12.91685163199420
  C   6.88509771326079     11.77191843040161     11.69804746538179
  H   5.82270063364218     11.82020639833258     11.92918150832734
  C   7.75279545807324     12.74731712425190     12.15553286938302
  H   7.37823528127718     13.57404756108840     12.75436021632427
  C   9.13556929721309     12.68726458627063     11.83539242427775
  H   9.80080752118131     13.47290586060831     12.18705304844738
  C   9.63680080853863     11.64721366195160     11.07169646903770
  H   10.69526885021701     11.61400535561639     10.80216987908796
  C   9.92107955572993      8.40958856438039     15.23068635523591
  H   9.33584368734268      7.93186715579439     16.01412740691358
  C   10.59369921187884      9.59375687914869     15.47338659457274
  H   10.54176944457657     10.06021454166314     16.45424973012875
  C   11.36863767369800     10.20321638529734     14.45055520913886
  H   11.90583188249174     11.12482116098168     14.66382655676134
  C   11.45369301492616      9.62773520297036     13.19440318700805
  H   12.06944392491807     10.08185631164356     12.41404224799530
