54
Coordinates from ORCA-job BOCYOK-OH_1_6_tpss_d4_lanl2dz_631gpol_Fe2.opt
  S   1.10842632543367     11.13071836161214      9.25752398048372
  Fe  3.09094896216896     10.18094743288807      5.44272244665852
  O   3.25369544298077      7.83021962674391      9.79721844576014
  N   1.96007198236103     11.32936768417088      6.57709640872909
  N   2.05581685354037      8.42456521400270      6.42624675501079
  N   1.23986541935388      7.03729291203344      7.97768493216554
  N   4.43495093460094      9.93459400562955      7.10194149342207
  N   5.07718238254588      9.93287899549051      9.23568876677275
  C   1.57503584891513     11.26274937987475      7.71852830852402
  C   0.97696099308009      7.76650511062013      5.90869755933727
  H   0.62766880712702      7.95129563510785      4.90338277535168
  C   0.45970501949385      6.90574659376752      6.85998309674153
  H   -0.38481125085992      6.23027362931140      6.83717193322087
  C   2.20939038280559      7.97409842968799      7.68775866850732
  C   3.22447851578008      8.36478743525079      8.67398100880184
  C   4.20999134059669      9.39124187950237      8.31666961366668
  C   5.85548042825489     10.84878924345205      8.57334959654811
  H   6.60997906418600     11.42620267108624      9.09014974791745
  C   5.45138920564861     10.84185319015727      7.25201667918109
  H   5.77867447943261     11.44316734202702      6.41522098207920
  C   1.00248434437612      6.32755224441388      9.24795028098286
  H   0.12703271247465      5.68871796249203      9.10345090857242
  H   0.81756044103909      7.05356601972181     10.04310425433988
  H   1.87632984447909      5.72719518463317      9.50908406196881
  C   5.13504411170914      9.68102837693467     10.68682969371733
  H   4.15234304682215      9.87241417971723     11.12558968111996
  H   5.87684299813603     10.36571583581311     11.10599157370251
  H   5.41735450236157      8.64340123015566     10.87531439721811
  O   2.29429613611660      7.71550119320338      1.21478493057842
  O   4.20375288202947     11.38029547208142      4.58158181172421
  N   3.99897831251565      8.51805375055482      4.31005561927338
  N   4.47988787484607      6.91663138691496      2.83181270066670
  N   1.60200103016027     10.07903900215327      3.87258075946446
  N   0.52361824425863      9.81546653504190      1.93805239068120
  C   5.10660740453154      7.84533075141602      4.73964684152477
  H   5.60404361207224      8.11472824294161      5.66083524736880
  C   5.41601668763720      6.84875925738546      3.83028856965073
  H   6.20950499178087      6.11378821642727      3.81034600792247
  C   3.62008622033239      7.94848502652613      3.14937854421350
  C   2.48553682675820      8.31447450437985      2.29058218347121
  C   1.58002817955628      9.38673254304605      2.71470592337322
  C   -0.11756649463654     10.80462746951841      2.63708333500446
  H   -0.98461117515042     11.30978132135957      2.23314961265551
  C   0.55917847705945     10.95908493114587      3.83539112753352
  H   0.37369348398221     11.63858374165893      4.65601816125411
  C   4.45228466035474      6.02883656742592      1.65388840472717
  H   5.28114870311543      5.32383842151318      1.75884259477086
  H   4.56612316959496      6.61948636275160      0.74234859871861
  H   3.50032964087654      5.49503682235183      1.61473227732199
  C   0.12205653179758      9.34398746763243      0.59915696874188
  H   0.95094329147076      9.47093037553996     -0.10056055129743
  H   -0.73596718899205      9.94470434906028      0.28694198741586
  H   -0.14683225458103      8.28623666715179      0.64352354592663
  H   4.73996761366876     11.05628381451932      3.82998435681182
