58
Coordinates from ORCA-job BOCYOK-CH3OH_1_3_tpss_d4_lanl2dz_631gpol_Fe2.opt
  S   1.05671672576163     11.23314670074975      9.10454870631583
  Fe  2.93744180399214      9.41162091195425      5.50783885377739
  O   2.95074991875375      7.97136116853234     10.05281274353384
  N   2.02694914968815     10.85434314001913      6.47944623148959
  N   1.85978290006798      7.87247796737626      6.61618332732586
  N   0.70350843202941      7.26833518206401      8.43270923425749
  N   4.23717222891042      9.44707762079574      6.99062391538623
  N   5.14847888823744      9.42675460935242      9.02337922033509
  C   1.61888620630663     11.02081569459652      7.60249037085628
  C   0.67293492008481      7.31995923672589      6.22162973261798
  H   0.41103206271799      7.22593564997513      5.17635809648797
  C   -0.05662972075409      6.94707583792221      7.33758197893629
  H   -1.03165583018680      6.49056935727223      7.44359518572277
  C   1.86510939287284      7.83573546904484      7.96257608887111
  C   2.95331229067522      8.26343857612602      8.84310680286487
  C   4.07137959112118      9.02423719809989      8.26580322273710
  C   6.00056723982772     10.11336197630566      8.19832635201774
  H   6.92179432863089     10.54218370466967      8.56848639718721
  C   5.43158737444067     10.12102610863772      6.94044548845052
  H   5.76736564423780     10.59041114959964      6.02689379493117
  C   0.27576908317581      7.12197693857747      9.83454804982516
  H   -0.75203771116226      6.74983638753123      9.82674696902047
  H   0.32161463056859      8.09824655704238     10.32496400382934
  H   0.93518303064550      6.42414384944876     10.35445381720665
  C   5.36710144167553      9.23314199072203     10.46871411030026
  H   4.55670382334697      9.70740127295462     11.02677580343940
  H   6.32566277838092      9.69846893752116     10.71401224024572
  H   5.38718724376044      8.16723491664697     10.70452922948180
  O   2.79196178690582      7.86022821100324      1.02596179822876
  O   4.04622467221716     11.33273786088132      4.62923144965053
  N   3.97911172033359      8.10582206083443      4.44699188940510
  N   4.79235869964821      6.84084453252765      2.79578354266215
  N   1.65997793984118      9.55533323703014      4.03159300244903
  N   0.66397725004833      9.49161650756999      2.03113867419013
  C   5.04342211126390      7.38343757096820      4.92637217325370
  H   5.37100005806770      7.46986482996806      5.95118886933575
  C   5.55291604527144      6.59911049650331      3.91173741862263
  H   6.37742524787124      5.89936863278851      3.89279654769814
  C   3.83281872621637      7.76146556688208      3.14606961739388
  C   2.79672436161341      8.21824306252952      2.22304722551203
  C   1.74881913511365      9.07083079852316      2.76796189911743
  C   -0.12129485693194     10.25133721796002      2.86061276099701
  H   -1.04336696788251     10.69733899169027      2.51282186398316
  C   0.49896001720777     10.28843680173140      4.09358820609317
  H   0.21186167589917     10.79401094319667      5.00395836257092
  C   4.99712377789443      6.19688551706705      1.48515773523037
  H   5.83701521851077      5.50527110797266      1.59152918876027
  H   5.21919039270830      6.95442958059352      0.73047771485716
  H   4.09376630234660      5.65747429614050      1.19223002175950
  C   0.36033592803342      9.19875514835752      0.61871074545161
  H   1.15647486291335      9.58656838730524     -0.02060409318644
  H   -0.58987639049488      9.68555778381012      0.38378340430683
  H   0.28187990265182      8.11923054813522      0.47149210794034
  C   3.87923404444576     11.82132522880021      3.28357619051466
  H   4.29261375589874     12.83369118259306      3.18786487544423
  H   4.43977580264578     11.13956201325111      2.63736040030054
  H   2.82172497120766     11.82360029567813      2.98560666215517
  H   3.45018594072620     11.83712347744289      5.23082977785067
