52
Coordinates from ORCA-job BOCYOK_1_1_tpss_d4_lanl2dz_631gpol_Fe2.opt
  S   1.59866184655856     12.06848861966530      9.01832905875570
  Fe  2.87431977910400      9.50068795447250      5.52449781390136
  O   2.87407456488668      8.31912356087278      9.98500827700309
  N   2.08277228380973     10.92489013213725      6.48212851492405
  N   1.92732841076444      8.15516499968554      6.48449550909309
  N   0.99434177788965      7.09465455550354      8.20445039774247
  N   4.25290062204559      9.57274358689905      6.88381657322279
  N   5.05313123085149      9.89196353504128      8.93947260441252
  C   1.87981261790692     11.40685642565800      7.56767766293401
  C   0.91413477238166      7.36553978426299      6.00699923361300
  H   0.66535416514601      7.33496286663256      4.95657837258994
  C   0.32913728484743      6.70592929816407      7.07028487176299
  H   -0.49479936036034      6.00643880859645      7.11017968327920
  C   1.97637831786497      7.97919325920717      7.82564348352182
  C   2.94590373728777      8.55094614416927      8.76475177378154
  C   4.04292981149673      9.33304192413654      8.19725865258549
  C   5.91841127588731     10.49475655032596      8.06408471202919
  H   6.79898129389222     11.01891490368853      8.40937870748053
  C   5.41992818944327     10.28782887929051      6.79110403944784
  H   5.81255247309022     10.62226797651388      5.84019584496129
  C   0.67114494271113      6.63859820030154      9.56919794554834
  H   -0.18521518934210      5.96369221330499      9.49011915351703
  H   0.42502588475668      7.49947129382783     10.19424463844375
  H   1.52938287708559      6.11758613792584      9.99984215683828
  C   5.16006044196452      9.93907063569317     10.40894025546526
  H   4.27177978212128     10.43071708883030     10.81405337707057
  H   6.05797551561225     10.51286228317126     10.65192614328298
  H   5.23048078641380      8.92603558604192     10.81052257270745
  O   2.69492943592865      8.24031656752844      0.99039343521121
  N   3.88904649101424      8.26571100765997      4.42004354084151
  N   4.70157854840115      7.10884067072230      2.68643881847150
  N   1.56522170720116      9.72225436440377      4.10757507197171
  N   0.57646285713989      9.82048278781236      2.10529867189230
  C   4.94285151409250      7.49514824072926      4.85280754782003
  H   5.26436486539594      7.50721159397080      5.88336660788899
  C   5.45048661963389      6.78098918116445      3.78701183831374
  H   6.27088860937510      6.07892773648370      3.72350102754488
  C   3.74544504437793      8.01085300104356      3.09503144117631
  C   2.70842261096892      8.52883937001191      2.20514652517849
  C   1.66288823488908      9.34859744495595      2.80647543717643
  C   -0.21969906993285     10.49613039220321      2.99435972379422
  H   -1.14117250284307     10.96812117146888      2.68124309854531
  C   0.39524204542795     10.43158341741462      4.22904345459935
  H   0.10509302448196     10.86200990746639      5.17612637072237
  C   4.91518900105914      6.56669696762630      1.33207675632685
  H   5.76188191151037      5.87748711958788      1.38890419457687
  H   5.13153223260857      7.38079864323050      0.63691599089612
  H   4.01789526051439      6.04196768424988      0.99648549612381
  C   0.29056005794384      9.66213966083916      0.66799417726051
  H   1.10042411676702     10.09923706552128      0.07961430207180
  H   -0.65053792399936     10.17995782554077      0.46526746142562
  H   0.20401517192591      8.60167097434400      0.42059698025404
