54
Coordinates from ORCA-job BOCYOK-OH_1_4_tpss_d4_lanl2dz_631gpol_Fe2.opt
  S   1.32069824615584     10.87597691527418      9.37422565172982
  Fe  2.87303097984065      9.97444709407357      5.48513677961280
  O   3.64066157820378      7.64076892555580      9.53604843556273
  N   1.68906838576581     11.26330555247034      6.59759771878493
  N   1.90823973748868      8.50706246765880      6.47036113465869
  N   1.32466065934342      7.00875753045545      8.00796462962362
  N   4.22959148106199     10.13128837258646      6.97783603497820
  N   5.07873111071506     10.05837881525117      9.03499219486334
  C   1.49720193498026     11.13351657376978      7.77974163950840
  C   0.75122354573069      7.90013636168794      6.06557374439898
  H   0.26224315666249      8.16977659116476      5.14182689060901
  C   0.37806253915256      6.97174851242765      7.01714132939076
  H   -0.47272796070273      6.30658010669807      7.07313271509620
  C   2.24975237562046      7.96197729669190      7.65694867006629
  C   3.39357513072754      8.30090108969511      8.51197736668319
  C   4.21895453569936      9.45925623363177      8.14986900069274
  C   5.61687133729317     11.15292153940527      8.40598324732918
  H   6.31260566129899     11.80947766294267      8.91020489255752
  C   5.08719553314474     11.19081824124387      7.13301247187117
  H   5.23098333060187     11.92358660139531      6.35146756166560
  C   1.25964404445774      6.22800210962539      9.25679859252558
  H   0.35225281182048      5.62019575581089      9.21142789532145
  H   1.21636398730749      6.91108567927150     10.10889362572467
  H   2.14350170177759      5.59396581814336      9.34760764192143
  C   5.28365750382497      9.71884160011202     10.45426311153292
  H   4.31707768815601      9.73575151490121     10.96596196332556
  H   5.94783651827932     10.47649570857996     10.87741005701242
  H   5.72521301387040      8.72467547385510     10.54158391110514
  O   2.48924673200435      7.86869921145470      1.15731946616627
  O   3.82127250325626     11.08133174084944      4.43520058571257
  N   3.84020103356691      8.26764539292443      4.48777531659354
  N   4.39773561963539      6.76673737347969      2.93474914592300
  N   1.52958150469757      9.98627325941418      3.94350832111887
  N   0.69867435566266      9.93394457811877      1.87908566082582
  C   4.84157534077886      7.48288822937562      4.98032320920654
  H   5.24909683319091      7.63511129721159      5.97075258012753
  C   5.19883678399323      6.54652790723689      4.02517529936280
  H   5.94224865990740      5.76058406754939      4.02939612064604
  C   3.57171775705038      7.82796701566860      3.24579726347267
  C   2.56555674745312      8.34285601355268      2.30723690329592
  C   1.63963562694906      9.39693587556630      2.73297322973784
  C   -0.00025932694967     10.87867587033082      2.58314633198091
  H   -0.79686959302059     11.44943912270226      2.12544591262805
  C   0.52524924118709     10.90719401025259      3.86260197133119
  H   0.27535643711775     11.52774619842034      4.71219270820183
  C   4.45674395036382      5.98408815918770      1.68561763176342
  H   5.21015085229118      5.20439590395571      1.82568734903629
  H   4.73064535736565      6.63606477019695      0.85342465779698
  H   3.48088144433002      5.53829108809942      1.48154925753611
  C   0.45355122442822      9.60561087901371      0.46231884232547
  H   1.36471237402000      9.76865325673441     -0.11717621672412
  H   -0.34436710322093     10.26542629080079      0.11174949930089
  H   0.15376213798132      8.55956944872450      0.36813268658932
  H   4.77389293768121     10.87323689479867      4.55652735789150
