54
Coordinates from ORCA-job BOCYOK-OH_1_2_tpss_d4_lanl2dz_631gpol_Fe2.opt
  S   1.35159980733321     11.25777553371443      9.23009080853633
  Fe  2.88233687010469      9.83294790104498      5.43128928875058
  O   3.47580342050360      7.71260023353461      9.59807192676682
  N   1.86799408996583     11.11744493274419      6.45724634622782
  N   1.86366810974501      8.41894238359822      6.43163799120075
  N   1.18354173351642      7.04723665804423      8.04973776724587
  N   4.20697369874856      9.98038029076523      6.86791015549535
  N   5.11004501030918      9.94632909388101      8.90645967301944
  C   1.65342514890128     11.19489276548576      7.63966882961799
  C   0.70224928835459      7.81831322873731      6.03267641732304
  H   0.24587393140971      8.03744090175108      5.07937299557291
  C   0.26940556462798      6.96838336159380      7.03281610240615
  H   -0.60381956812674      6.33447854913380      7.10514421424329
  C   2.15213350275915      7.94210413287022      7.66008075576614
  C   3.29165644519443      8.29240547070731      8.51290243521248
  C   4.18953010122631      9.36046251707681      8.06972241067991
  C   5.69570396551836     10.97122652907771      8.21407046879331
  H   6.44332082122717     11.60729898244501      8.66764061142118
  C   5.13141171507646     10.98744215246794      6.95334870036633
  H   5.28429963780630     11.68726441486955      6.14492102247570
  C   1.06265405180802      6.34801619451601      9.34236431961881
  H   0.13645012735113      5.76832182938644      9.31126278323953
  H   1.02451252867783      7.08293337598036     10.15006686727075
  H   1.92220860655167      5.69217507401353      9.49352135828237
  C   5.35265106477717      9.64700843695227     10.32910101400538
  H   4.41697487089755      9.75739334391482     10.88356871857871
  H   6.09286374385897     10.36616169738350     10.68892566267612
  H   5.72174239962616      8.62576995420721     10.43979385159342
  O   2.66645159262668      8.03518920222376      1.14222520725169
  O   3.77700637364478     10.99571989803409      4.36925764426568
  N   3.83238399063037      8.34571058608065      4.55834097297445
  N   4.51626138948691      6.92312326444040      2.99109556849736
  N   1.52252864542994      9.91021648727551      4.02322139641575
  N   0.65520487086337      9.89376912878743      1.97137856510435
  C   4.82718341618234      7.56780298895721      5.08537237039355
  H   5.17581119892298      7.69560696233149      6.09953920582361
  C   5.25888654341921      6.68098626742804      4.11816325339727
  H   6.02219950686966      5.91510398590146      4.13944765392883
  C   3.64298014334561      7.94438428573361      3.28455936251309
  C   2.65935291220480      8.45102825854918      2.31635924921873
  C   1.65499672837090      9.40040593240253      2.77983255690591
  C   -0.11103263537211     10.72939112829937      2.73921645110777
  H   -0.96343548861244     11.25266673779631      2.32758671543099
  C   0.43610131151354     10.73613207484328      4.01148029317974
  H   0.15192729737124     11.29114993328148      4.89364787847192
  C   4.66813819016658      6.19186142503012      1.71850244687143
  H   5.43546215433483      5.42892634948449      1.87382301946863
  H   4.96849777280830      6.88355445556122      0.92880381302399
  H   3.71893844454367      5.72714021281945      1.44323700271319
  C   0.42628083623316      9.61587291920303      0.54211615059771
  H   1.30423872771811      9.91382991978841     -0.03550004423392
  H   -0.44740411625218     10.19594040164342      0.23433975528386
  H   0.24742296469743      8.54834249203183      0.39410197843343
  H   4.73140654110222     10.76858476217441      4.41193803657424
