38
Coordinates from ORCA-job AZOFAX_1_2_tpss_d4_lanl2dz_631gpol_Mn2.opt
  Mn  -2.58026236453601      0.22074157493804      7.57936187791646
  I   -5.01345552227546      1.12547887109670      7.57515068499915
  N   -1.68756023127031      0.14816518544981      5.84590022482468
  N   -1.38329593493727     -1.22570565353366      3.89273905328027
  N   -3.12210372931469     -3.09190362540528      5.14333310733188
  N   -3.27692197016588     -1.50220110030247      6.94772170618318
  N   -1.76714856827436      1.89842075067808      8.27292362922124
  N   0.16889832290045      2.72581583735825      9.45721810791644
  N   1.01574056455547      0.05801231935744      9.66484050806684
  N   -0.98016981869679     -0.54693541403811      8.46080616325571
  C   -0.89254846915349      1.10366779601914      5.29947895285883
  H   -0.72757702766747      1.99533159248645      5.89615634212026
  C   -0.33058648916000      0.93223007996877      4.03963757212314
  H   0.30035372084696      1.70184079226652      3.60386582822141
  C   -0.60065629728391     -0.27169806341618      3.36672733601135
  H   -0.18275191619035     -0.47970166463801      2.38316309134233
  C   -1.90247795648159     -0.98172916639633      5.09631064047597
  C   -2.80494236417466     -1.94025598603347      5.73932061061529
  C   -3.98294481782825     -3.88551260766238      5.79852847422308
  H   -4.23877692589673     -4.82426887824275      5.30986715667090
  C   -4.53514249265452     -3.53281974392667      7.04281739203473
  H   -5.24119823582461     -4.17837030102205      7.55747011896343
  C   -4.16172572436475     -2.31069269584702      7.59038369387976
  H   -4.56084852722037     -1.93928011707871      8.53027951766455
  C   -2.22732307893451      3.17446417298400      8.15213837914654
  H   -3.17982450237194      3.29201370985671      7.64393049697036
  C   -1.51322642507872      4.24971319402785      8.67137143138979
  H   -1.89222482429118      5.26267746558389      8.56832771835059
  C   -0.30501225489080      3.97512896383882      9.33047802062936
  H   0.30212842630457      4.76702574956525      9.76616701514658
  C   -0.56971283247557      1.74933126058331      8.92826452457107
  C   -0.12404009354024      0.35478886119485      9.03910508731022
  C   1.34057751455013     -1.24109284269316      9.74633666834957
  H   2.27175147210848     -1.47334107218958     10.26059530055247
  C   0.53011937466412     -2.25106565091449      9.20156035962003
  H   0.79899374743524     -3.30131142370814      9.27250532908635
  C   -0.63354941076056     -1.85740020092967      8.55126987913605
  H   -1.30925433765036     -2.57196196927577      8.09174799953982
