40
Coordinates from ORCA-job AZOFAX-OH_1_3_tpss_d4_lanl2dz_631gpol_Mn2.opt
  Mn  -2.61436281013369      0.11928046332473      7.72187393753933
  I   -4.72050627919868      1.27913686488623      6.56544603553239
  O   -3.41026111189281     -0.15070443572351      9.30706399873307
  N   -1.69893944542692      0.12218461142070      5.88440781903941
  N   -1.48833017970468     -1.19881935560314      3.88954746546261
  N   -3.24708989764872     -3.04605527437213      5.10484291744752
  N   -3.25832524865863     -1.58627146215626      7.01324108232448
  N   -1.74016351086859      1.86359448975520      8.33586510446438
  N   0.23437378370545      2.68111453286979      9.43550882089884
  N   1.14851227217078      0.05021439027954      9.55257414044277
  N   -0.89224457431995     -0.61070154154420      8.48656867032792
  C   -0.89802026865319      1.06986526509671      5.34978377752541
  H   -0.70846887926252      1.94716079732886      5.96076992714396
  C   -0.36722484653342      0.92322799038893      4.07190295415317
  H   0.27034395374202      1.68951825581034      3.64034511772004
  C   -0.69365686900308     -0.24939202133408      3.37228276528570
  H   -0.31219883084579     -0.43708863636975      2.36970101890710
  C   -1.96329486697825     -0.97564026671877      5.11659986782881
  C   -2.86794715912747     -1.94426195007339      5.75251462458798
  C   -4.10028598127908     -3.85761769597225      5.74881063446965
  H   -4.41353653401094     -4.75065545316694      5.21060974162620
  C   -4.56880975517388     -3.57782014507929      7.04375220809971
  H   -5.26312480653440     -4.23934242042100      7.55432118295253
  C   -4.11764775383602     -2.41454569757384      7.65817078656031
  H   -4.40506101376368     -2.09218793787620      8.65513411049016
  C   -2.25095464679546      3.11604432688048      8.30895919796047
  H   -3.22992826406957      3.22004263910558      7.84645067042150
  C   -1.54026154288472      4.19098634815256      8.84405096948785
  H   -1.95635195265918      5.19439610168111      8.82372181663372
  C   -0.28120076304293      3.92266249300263      9.39435904002999
  H   0.33785963078912      4.71202308763756      9.81829310728524
  C   -0.51732984598132      1.70853886868075      8.92013523982807
  C   -0.03374238608805      0.31206092237521      8.99338675459295
  C   1.49370460322821     -1.24588351091047      9.63953403850845
  H   2.45983964208551     -1.45407457404598     10.09683748801294
  C   0.66482888738209     -2.27871225314564      9.17902292880624
  H   0.94722367461608     -3.32382133173545      9.26933125212716
  C   -0.54304337682193     -1.90920775586666      8.58976561933637
  H   -1.24867901536118     -2.63485090000092      8.19669807579579
  H   -4.23029403116035      0.38740217101299      9.36739509160907
