39
Coordinates from ORCA-job AZOFAX-oxo_1_2_tpss_d4_lanl2dz_631gpol_Mn2.opt
  Mn  -2.72531683873052      0.18493430996361      7.81497001076044
  I   -4.54858240567652      1.38428836732964      6.31020274490462
  O   -3.51152330757090     -0.06213325700798      9.18851342765722
  N   -1.63411856338074      0.09619304693245      5.96248529688835
  N   -1.28628335389384     -1.35719928304486      4.08499641920428
  N   -3.20571446457552     -3.06574426364282      5.21249110399321
  N   -3.36202321871545     -1.52334205123593      7.04364835421492
  N   -1.87133136437739      1.91128720835137      8.40578248930258
  N   0.21028850130983      2.80803167618166      9.20463224332538
  N   1.19384627095707      0.17553222421593      9.22488497927098
  N   -0.96577767597058     -0.52032141969174      8.46559405254696
  C   -0.77810773295424      0.99546745341985      5.43635246530645
  H   -0.62638380288238      1.91033731868115      6.00262743497965
  C   -0.14651605044668      0.75956132453276      4.21771483406904
  H   0.53539964615546      1.48822757673327      3.78870199109661
  C   -0.43217545668077     -0.45513558182080      3.57569898965167
  H   0.03081236850149     -0.71720317336972      2.62533922921739
  C   -1.85693346545566     -1.04012292368364      5.25061945251849
  C   -2.85373033001718     -1.94908861105463      5.85121340856204
  C   -4.16205242764983     -3.81189796440660      5.78876855831413
  H   -4.44742045312030     -4.71909305570457      5.25846149039396
  C   -4.76792802389082     -3.44911311267157      7.00163948628356
  H   -5.55067745051447     -4.05244441121540      7.45296382679781
  C   -4.33022993584735     -2.27871723733976      7.61485887731364
  H   -4.72235483565884     -1.89927860227225      8.55454480747039
  C   -2.44901753436832      3.12950696497270      8.50918449100996
  H   -3.49170663298071      3.19219512392523      8.21205801150928
  C   -1.71507740923948      4.22820260388717      8.95790291694592
  H   -2.18141444644474      5.20523919429334      9.04734682562445
  C   -0.36464286705884      4.02295875967386      9.26795788967194
  H   0.27953540161337      4.84130528335339      9.58583361751569
  C   -0.57259193994579      1.80623131604889      8.80576380956884
  C   -0.05495727528000      0.42225211276639      8.82851538061515
  C   1.55350669514837     -1.11703435975539      9.30437396903750
  H   2.57650194201969     -1.31023041923463      9.62346647284182
  C   0.67071183976532     -2.16489989170212      9.00499246859079
  H   0.96382874858031     -3.20673353890166      9.09837717125625
  C   -0.60614087435160     -1.81585238628842      8.56880352280482
  H   -1.35680127637137     -2.55226632121816      8.29881747896350
