39
Coordinates from ORCA-job AZOFAX-oxo_1_4_tpss_d4_lanl2dz_631gpol_Mn2.opt
  Mn  -2.71636855773450      0.23222819123413      7.72317555786883
  I   -4.70130197065470      1.36449917997520      6.42334129883738
  O   -3.51736549490038      0.01311198667395      9.16172961285787
  N   -1.68726416410609      0.15958605810004      5.84831051942855
  N   -1.32845563949996     -1.32186738418731      3.99169356884494
  N   -3.13382906227310     -3.09516919055036      5.21577543260024
  N   -3.32449260200176     -1.51978018720272      7.00107571525638
  N   -1.81200752872911      1.93437601231470      8.35167351051430
  N   0.20356329890929      2.74309783939558      9.37214347634638
  N   1.11283612271760      0.10606903028031      9.45017760390731
  N   -0.97522288925588     -0.54697641215591      8.47613612853021
  C   -0.88989927326657      1.08297727685088      5.27548243273448
  H   -0.76202185754219      2.01537883273441      5.81943248882317
  C   -0.28153256442568      0.84577230655276      4.04369359224054
  H   0.35581510269267      1.59282985519518      3.57887091074801
  C   -0.52847133521251     -0.39463312613849      3.43755362649189
  H   -0.08051958708566     -0.65897368111998      2.48078179613412
  C   -1.87669578994897     -1.00087229024194      5.16533001770752
  C   -2.81747002667308     -1.94556750619421      5.81139682885383
  C   -4.04213093662363     -3.86409282629934      5.84351043367767
  H   -4.29913300982133     -4.79811100907104      5.34591388055940
  C   -4.63399400922347     -3.50021701409888      7.06299437166680
  H   -5.37378923183079     -4.12913300071090      7.54997566332235
  C   -4.23593857902608     -2.29274596103434      7.63279994740562
  H   -4.60654685858267     -1.88831546595028      8.57260719237878
  C   -2.33908477917151      3.17999627474316      8.38355836383588
  H   -3.34346000123990      3.28521603798349      7.98362844577040
  C   -1.60977946050470      4.24840671427121      8.90469981004014
  H   -2.03869351543328      5.24610168732496      8.93434747422131
  C   -0.31804014644427      3.98230049501873      9.37478967423313
  H   0.31994460570957      4.76982911047539      9.77312206778893
  C   -0.56623431441148      1.77242789705732      8.88263368167266
  C   -0.08873880198092      0.37404099741257      8.93829154764964
  C   1.45476004584815     -1.19033797417808      9.53502007499138
  H   2.43897276754724     -1.40030144334551      9.95107282364243
  C   0.59772759663799     -2.21995717411315      9.12203627203347
  H   0.87243165189226     -3.26699858641207      9.21427643115565
  C   -0.63173811581031     -1.84625276261576      8.58251663572828
  H   -1.35893108854020     -2.57404278797369      8.23553108949988
