38
Coordinates from ORCA-job AZOFAX_1_4_tpss_d4_lanl2dz_631gpol_Mn2.opt
  Mn  -2.73742119384960      0.25069896134273      7.70487518142288
  I   -5.18668161520956      1.12523983907041      7.88215492249701
  N   -1.76222150830881      0.30106190774218      5.82648943363981
  N   -1.18183970016401     -1.20579060972304      4.04276381709476
  N   -2.90407452720515     -3.07033803444381      5.20825480404605
  N   -3.33174630018164     -1.47245357734733      6.95333593883855
  N   -1.83414387902505      1.88421896074912      8.35446546630327
  N   0.31747902082351      2.66217072440860      9.12228340514335
  N   1.08053738787162     -0.02163846268033      9.36378718097741
  N   -1.13175376238934     -0.60783049432856      8.61078384282812
  C   -1.01926357516701      1.27380314455637      5.25117696861694
  H   -0.98597377966433      2.22867387507478      5.77007996542522
  C   -0.34031096654298      1.05131193485983      4.05692065537964
  H   0.25024615219776      1.83540164192624      3.59144238381379
  C   -0.44291975784462     -0.23132703809201      3.49120813823010
  H   0.07839806151208     -0.48775955419625      2.57002709397462
  C   -1.82193220681663     -0.89642489336773      5.17489423823861
  C   -2.71416680204824     -1.88838952400763      5.79872525922369
  C   -3.78734745809459     -3.90334685020412      5.77652615792618
  H   -3.92925857822909     -4.86384276355636      5.28370682680900
  C   -4.50217747042626     -3.55969310591933      6.93803114575376
  H   -5.23392729187406     -4.22943016095199      7.38077476720296
  C   -4.24234690228600     -2.31994634745918      7.50773194334469
  H   -4.75015568518591     -1.96179531088024      8.39897693756706
  C   -2.27581667710036      3.17334149588538      8.30407726168745
  H   -3.30493260572445      3.31204464260809      7.98577085925104
  C   -1.44380756207641      4.22885894502723      8.65252507660732
  H   -1.80728174324663      5.25187106359922      8.61344354049070
  C   -0.12926609275583      3.92281006205621      9.05019924620094
  H   0.58053572777368      4.70229462320913      9.32277039860496
  C   -0.54032387665013      1.69390597014537      8.79090867254661
  C   -0.14345555559832      0.28998526621603      8.92801354478020
  C   1.34219403915380     -1.32299414819897      9.54566849228339
  H   2.34286461114802     -1.56804900008756      9.89843140664660
  C   0.38473950261430     -2.32514761310337      9.30194562758716
  H   0.60116449928033     -3.37616396556058      9.47117460490530
  C   -0.85171348438637     -1.91983547047128      8.81560935322972
  H   -1.64059844432365     -2.62789613389722      8.57784544088071
