65
neighbouring H atoms added
C     7.740500   13.511100   13.959100
H    11.549200   13.511700   14.124600
C     9.869900   14.678400   14.057300
C    11.720500    9.378100   12.953300
C     8.894800    3.758400   14.074200
H    13.502500   10.109300   12.298900
H     8.291000    6.912600   11.513200
C     5.728100    8.678900   10.690200
C    11.687800    7.662400   17.435000
H     6.361500    1.552700   14.679100
H    10.049200    6.912600   16.530300
C     5.220900    8.407200   16.775600
H     5.054100    8.766600   10.026900
C     6.652400    7.662400   10.608500
N     7.565900    8.418200   15.255500
H    10.929700    3.221000   13.564700
C    11.534900   10.297100   14.128500
C     6.148800    7.396900   16.915300
H     4.837700   10.109300   15.744500
C    10.697100    7.604600   16.466600
N    10.600200    8.466700   15.446500
C    12.876400    9.403400   12.187700
C     9.923100    2.853000   13.810700
C     7.643100    7.604600   11.576900
Fe    9.170100    8.375100   14.021700
C     7.368500    1.920200   14.433400
C     7.313300    7.455800   16.164100
H    13.286100    8.766600   18.016600
C    11.554000    9.433300   15.364800
N    10.774400    8.418200   12.788000
C     9.673900    1.481500   13.857700
C    12.612100    8.678900   17.353300
C     6.786300    9.433300   12.678600
H     5.151800   10.264100   11.807600
H     8.200100   -0.066500   14.206500
H    10.484100    0.767800   13.649400
H    10.371700    6.781100   11.745900
C    13.119300    8.407200   11.267900
N    10.253600   10.995900   14.053100
C     8.470300   14.678400   13.986200
C     6.619800    9.378100   15.090200
C     8.396300    1.014900   14.169500
H     4.430500    8.416400   17.303200
H    13.188500   10.264100   16.235800
H     6.057200   10.959800   13.879200
H    13.909700    8.416400   10.740300
C    12.191400    7.396900   11.128200
C     7.617600    3.292000   14.385400
C     9.170100   10.188600   14.021700
N     9.170100    6.417900   14.021700
H     6.807200    4.005500   14.593300
N     8.086600   10.995900   13.990300
C    12.549500    9.564900   16.308600
H     7.968500    6.781100   16.297600
C     6.805300   10.297100   13.915000
C     5.790800    9.564900   11.734900
C    11.026900    7.455800   11.879400
C     9.170100    5.272700   14.021700
C     9.868700   12.336500   14.049000
C     5.463800    9.403400   15.855800
N     7.740100    8.466700   12.596900
C     8.471500   12.336500   13.994400
H    12.283000   10.959800   14.164300
C    10.599700   13.511100   14.084400
H     6.791100   13.511700   13.918900
