8
Center, func. groups, neighbors
C     9.673900    1.481500   13.857700
C     8.894800    3.758400   14.074200
C     9.923100    2.853000   13.810700
C     8.396300    1.014900   14.169500
C     9.170100    5.272700   14.021700
C     7.368500    1.920200   14.433400
C     7.617600    3.292000   14.385400
N     9.170100    6.417900   14.021700
