56
Coordinates from ORCA-job BUNMED-oxo_1_4_tpss_d4_lanl2dz_631gpol_Mn2.opt
  Mn  -6.16968064743035      0.75142040162552      4.07469536644984
  Cl  -7.01149769658897     -1.24627737758815      4.77988076435987
  O   -7.29829868876148      1.20772312157249      2.94058239625518
  N   -5.09183392759584     -0.26851650540766      2.71175757041238
  C   -5.46790093193752     -0.32095625160973      1.41407486825950
  H   -6.36571867312428      0.24838523398383      1.18463746453615
  C   -4.75483700597654     -1.07132538173420      0.48066908680735
  H   -5.08405332205259     -1.09572725879749     -0.55468255113048
  C   -3.62675524328404     -1.78430550400311      0.90459707827752
  H   -3.04652127823291     -2.37336191898734      0.19753227949005
  C   -3.25734622654307     -1.74177093254691      2.25438648552094
  H   -2.39738322660003     -2.29850015264280      2.61979549923101
  C   -4.02151621841946     -0.98477334003066      3.14381631339969
  N   -7.09092255850838      1.79071192353251      5.55748054582437
  C   -7.76650216756790      1.27271459593905      6.60842109735402
  H   -7.76457920996012      0.18898031968549      6.68110614222992
  C   -8.44399512011294      2.08731647855059      7.51663405535582
  H   -8.98012495902487      1.63046592838558      8.34416090272785
  C   -8.42210305960554      3.47412565988759      7.33743911785475
  H   -8.94183738928015      4.13185469896310      8.03069922887917
  C   -7.71975718907207      4.00600044690960      6.24959614671880
  H   -7.67785509920718      5.07856051493041      6.07486961300010
  C   -7.07286331685334      3.13753378030173      5.37059914671716
  C   -6.34764305223561      3.58278260093703      4.13282102795306
  H   -7.03504417959857      3.51268986224614      3.27937597554629
  H   -5.96155051721095      4.60666928425132      4.21702066046281
  N   -5.24092256130359      2.61426900841839      3.85862913400384
  C   -4.17072982912750      2.74652581375980      4.89982236547919
  H   -4.66541404145853      2.93000269991003      5.86162625336728
  H   -3.53233360940110      3.61112368073808      4.67392900395299
  C   -3.37382061066087      1.45190883115422      4.96560001773847
  H   -2.85320494934888      1.27068629425040      4.01685801487574
  H   -2.61445070385368      1.49538432182726      5.75853452220681
  N   -4.32189493435742      0.31905033090815      5.17222278276101
  C   -3.79317404983080     -0.96334940389655      4.63690766166953
  H   -4.38178156106274     -1.77265446063677      5.08844573167492
  H   -2.73187623669487     -1.10929474951348      4.88473035082999
  C   -4.71457241966190      2.81530638197986      2.44145858830484
  H   -5.57215852856117      2.56898885949107      1.80568885220175
  H   -3.94203170928487      2.05464193410507      2.28838304829331
  C   -4.17813593752997      4.19502018439619      2.17051687875342
  C   -2.81728660442263      4.50212352570041      2.38937772744937
  H   -2.13109607831580      3.71863193095548      2.71558951436743
  C   -2.32005380921228      5.78176169753397      2.16448660624346
  H   -1.27076047695237      6.01960448469726      2.32233988024658
  C   -3.17987877177397      6.79950837199482      1.70037410345105
  O   -2.59964903299858      8.01356884660953      1.51053426975349
  C   -3.42336015942013      9.08047910143799      1.01024542968108
  H   -2.75903951856321      9.94382198250600      0.93626024680701
  H   -4.24551478577580      9.29943467243488      1.70595612866503
  H   -3.82594839763748      8.83179993577913      0.01856818307947
  C   -4.53586183266144      6.50796713744471      1.45478125150655
  H   -5.21050261622028      7.26822436129832      1.07073689261495
  C   -5.01609132020291      5.21530321506642      1.68921026916454
  H   -6.06238849255584      4.99679735610014      1.47372814305142
  H   -4.53344551636440      0.20684342519517      6.16829186531215
