61
Coordinates from ORCA-job BUNMED-CH3OH_1_4_tpss_d4_lanl2dz_631gpol_Mn2.opt
  Mn  -6.03046072399172      0.64835915383226      4.32213849240536
  Cl  -6.94950225702380     -1.38132804357012      5.00679198910704
  O   -7.84844785535715      1.08867992274038      2.83182404344817
  N   -4.96233917695318     -0.31181493604404      2.93729217171446
  C   -5.25308605691443     -0.30231212636613      1.60976070511319
  H   -6.10786478929860      0.30236381635760      1.32149495524655
  C   -4.50731289218172     -1.00919710422813      0.67171100632669
  H   -4.78706990265877     -0.96697518874993     -0.37779762338156
  C   -3.40904900828194     -1.76347648463347      1.10632209884408
  H   -2.80594144531105     -2.32945929764941      0.40040001169463
  C   -3.09763868698231     -1.76506709898024      2.47014514650549
  H   -2.24471326979682     -2.32453219931504      2.84848336939375
  C   -3.88711857130256     -1.03942532468730      3.36411234695613
  N   -7.02008291228840      1.72862147946420      5.66321791923925
  C   -7.65171473869040      1.24435765065141      6.77253306636608
  H   -7.66513438366729      0.16115486854250      6.85778616788841
  C   -8.24833329502087      2.08251951360010      7.71035508438409
  H   -8.74174908512531      1.64288094300685      8.57356416117001
  C   -8.20730160397629      3.47182933047165      7.52628211833119
  H   -8.66431646936050      4.14575651495965      8.24680166284541
  C   -7.55328338672691      3.97508540611216      6.39363812207018
  H   -7.48466009180941      5.04591302761637      6.21387104445528
  C   -6.97648589889588      3.09026459961269      5.48496141048886
  C   -6.25947827851761      3.52722312245096      4.23699451182235
  H   -6.92961551958733      3.48938422846025      3.36543954634578
  H   -5.88311440598562      4.55599446730069      4.32228855999459
  N   -5.15179858490043      2.55727958304709      3.95170937384991
  C   -4.07118620589230      2.70188775619855      4.98113832755640
  H   -4.56386325106934      2.85541495806878      5.94981600756177
  H   -3.46401108443439      3.59175575062695      4.76358370296811
  C   -3.21054610246355      1.43941745719307      5.04022151107401
  H   -2.76773144736741      1.22809140174971      4.05842323851881
  H   -2.38256537364634      1.58092991024474      5.75062974264405
  N   -4.06890446206424      0.28579954699729      5.39922033256406
  C   -3.61814621399934     -1.01650434420213      4.85248396223160
  H   -4.22687228728481     -1.78981794902295      5.33931359593754
  H   -2.55462707803283     -1.22045313647113      5.05266867272405
  C   -4.63098799659279      2.77802308307819      2.54039531500315
  H   -5.48607203240760      2.56763266474147      1.88683060656667
  H   -3.87653544513490      2.00519230938927      2.36368350221542
  C   -4.06461723077559      4.15019004181947      2.27824017524806
  C   -2.69244101198225      4.41468091742679      2.47888045372624
  H   -2.02586620437489      3.60658887656667      2.78402856150723
  C   -2.16187396766122      5.68349994146811      2.26853318021975
  H   -1.10401669373872      5.88823833340059      2.41494334182361
  C   -2.99875807052691      6.73392709160825      1.83761735537024
  O   -2.38672859796412      7.93522465744054      1.66042335986466
  C   -3.18865621973892      9.03370158016679      1.19644781108679
  H   -2.50225824339183      9.87999366909286      1.12662433741571
  H   -3.99196273973596      9.26187201321003      1.91113835168837
  H   -3.61624694219101      8.81644189172128      0.20774087597730
  C   -4.36600764799928      6.48607220509332      1.60943993931469
  H   -5.02463680027093      7.27233613163071      1.25087788488048
  C   -4.87902306803520      5.20278920537855      1.82881355674944
  H   -5.93466012013716      5.01936370083871      1.62494800217176
  H   -4.17864103636664      0.21335730147708      6.41354204991794
  C   -8.67275562953907     -0.04471022009624      2.41182612833540
  H   -9.08730418117655     -0.55959443429357      3.28361006559535
  H   -9.46113524631721      0.31138358585149      1.73770729240789
  H   -8.00738798936305     -0.73036873454112      1.88459406644403
  H   -8.41212008771682      1.62806301214467      3.42222323006373
