61
Coordinates from ORCA-job BUNMED-CH3OH_1_6_tpss_d4_lanl2dz_631gpol_Mn2.opt
  Mn  -6.17563348962688      0.53829382851569      4.32077294350944
  Cl  -6.95393971297386     -1.48839574395578      5.33962024421596
  O   -7.83427843286651      0.75779180793110      2.79060708983564
  N   -4.88241899671403     -0.39021592779472      2.72121072067176
  C   -5.14425125375428     -0.44845218741882      1.39649208294250
  H   -6.00191652430954      0.13123861292399      1.06166266710051
  C   -4.36999379995603     -1.19116066165917      0.50532531086172
  H   -4.62086365736950     -1.20971435108298     -0.55221952518356
  C   -3.26859205198485     -1.89610639452549      1.00705008914139
  H   -2.63685983332200     -2.48281732251170      0.34345566958167
  C   -2.98497174494253     -1.82771302287666      2.37461954793156
  H   -2.13130652907250     -2.35491898397464      2.79569903142577
  C   -3.81712491988651     -1.07215907951931      3.20845046895372
  N   -7.26476085283006      1.91147016345858      5.72848019529699
  C   -7.97012652864693      1.44443176772923      6.78467507747686
  H   -8.11517369442407      0.36527391516499      6.80177811405365
  C   -8.46110660303265      2.28879827761260      7.78367873149001
  H   -9.02577022990645      1.87306906292371      8.61433189476751
  C   -8.20077984516985      3.66082782814937      7.69335242461859
  H   -8.55828561567353      4.34505779980389      8.46020673381723
  C   -7.46342014214833      4.14369481756807      6.60468585989142
  H   -7.23588960414110      5.20328842311853      6.50664908789275
  C   -7.01718716814492      3.24144075743679      5.63488436536849
  C   -6.26674616064753      3.68500317443143      4.39568097922867
  H   -6.97199537080922      3.76357858164888      3.55430948998845
  H   -5.83202172623968      4.68586862232121      4.54193741870908
  N   -5.24075503270754      2.68371884598183      4.01207240338953
  C   -4.10433941039543      2.73309738037162      4.97716054084906
  H   -4.53800565675377      2.82645363038994      5.98236416913749
  H   -3.47826213598012      3.62087822727732      4.79838499545179
  C   -3.26410307895476      1.45654622289677      4.90949751499023
  H   -2.87730966837257      1.30426897950682      3.89441063608819
  H   -2.39766921087309      1.54107361814090      5.58264943301862
  N   -4.11078013195046      0.28206543244265      5.23911873561395
  C   -3.59868996761788     -1.00336635327305      4.70847108157234
  H   -4.18940324063895     -1.79802812449988      5.18564476699440
  H   -2.53462237466641     -1.15977139516631      4.94485144596620
  C   -4.80241913655799      2.89846366306216      2.58158078253121
  H   -5.70738698451762      2.75150083354784      1.97685496764311
  H   -4.11592630621152      2.07997883659804      2.34099663637297
  C   -4.16158096756494      4.23516136549921      2.29738633910971
  C   -2.76551258856407      4.40375262657662      2.41635196162518
  H   -2.13799344752307      3.54630564281059      2.66481467277958
  C   -2.16385781585645      5.63924245587083      2.19592404570255
  H   -1.08746348284195      5.77015012285814      2.27856550329189
  C   -2.95248224511528      6.75205941958290      1.83844596634389
  O   -2.27195085971694      7.91454362371120      1.64179906968770
  C   -3.02594429443281      9.07064030908883      1.24413986840786
  H   -2.29068701631709      9.87130123759828      1.14047420951588
  H   -3.76589314222318      9.34010998714481      2.01120437460036
  H   -3.52957978704332      8.89883540393203      0.28248027839765
  C   -4.34497080566378      6.60211876075765      1.69672470103716
  H   -4.97018928332484      7.43918841874431      1.39829701017845
  C   -4.92903341552931      5.35072863418784      1.92530168343653
  H   -6.00602600708310      5.24428649091010      1.78838328286919
  H   -4.22386839210572      0.19626332048598      6.25355702690449
  C   -8.56899706453969     -0.47340327946563      2.47777835834857
  H   -9.08844703322256     -0.84387796702467      3.36646560627125
  H   -9.26094637188576     -0.27589143471332      1.65122765288575
  H   -7.81353054280575     -1.20269424326877      2.18120629869616
  H   -8.48271861184850      1.40132554201744      3.14074726670298
