55
Coordinates from ORCA-job BUNMED_1_2_tpss_d4_lanl2dz_631gpol_Mn2.opt
  Mn  -6.07388781494045      0.72453696195178      4.16873337809413
  Cl  -7.24401005535927     -1.20490702509173      4.54712021131033
  N   -5.08555621038976     -0.25611983246288      2.75189937225345
  C   -5.41045428903633     -0.30381684737416      1.43683337121349
  H   -6.28802010857624      0.26681486287673      1.14159275541955
  C   -4.68451561481722     -1.05290533321307      0.51325079359793
  H   -4.98763294345528     -1.05977874837080     -0.53037041649036
  C   -3.58318735477618     -1.79459394507203      0.95829821123318
  H   -2.99685274806132     -2.39052172193108      0.26296127358302
  C   -3.25766220434240     -1.76775854211505      2.31974973569963
  H   -2.42028212622423     -2.34353410521053      2.70756012490940
  C   -4.03095176291173     -1.00090350556184      3.19076598302805
  N   -7.09761760500114      1.76007227941105      5.52405626755898
  C   -7.76106728655049      1.23506419449776      6.58978787022960
  H   -7.77450215709197      0.14950724130701      6.63746571810612
  C   -8.40435913065172      2.03655946002216      7.53242978472294
  H   -8.92286367139292      1.56600533358523      8.36388254594737
  C   -8.37413735169349      3.42825442960378      7.38888485880522
  H   -8.86485597745784      4.07518258558775      8.11237483219485
  C   -7.69592268453085      3.97460113349786      6.29075958427301
  H   -7.64828082544572      5.05042906339682      6.13709996322115
  C   -7.07908830375866      3.11974702357504      5.38024320062014
  C   -6.36393397659915      3.58749111406311      4.14235401094163
  H   -7.04916860990479      3.56453797234248      3.28182690417957
  H   -5.98428183785310      4.61372665300027      4.24201012472502
  N   -5.26207440308927      2.61794857432587      3.84080926657748
  C   -4.17268744475971      2.76682064827827      4.86237770634957
  H   -4.65660085371149      2.95410260268647      5.82936256404953
  H   -3.53647334057118      3.63014341088586      4.62465719177612
  C   -3.37308713310885      1.47288667135142      4.92704588180278
  H   -2.88077724579074      1.26525906166737      3.96883949464546
  H   -2.59575066420853      1.52289863596932      5.70187664481680
  N   -4.32740486964582      0.35251604503693      5.18269973839254
  C   -3.83470525809449     -0.96964831371316      4.68632437876713
  H   -4.47405586800145     -1.73419776471018      5.14625538440623
  H   -2.78814793474726     -1.15067954156394      4.96962069833460
  C   -4.74407071336090      2.84273891005935      2.42591114413453
  H   -5.59554061100347      2.61869380738516      1.77043339107237
  H   -3.98210581666778      2.07641121857859      2.25160313857689
  C   -4.19840425122141      4.22016699454596      2.15255523917905
  C   -2.82765061907679      4.50395547144125      2.33688872923184
  H   -2.14597563660287      3.70768959921291      2.63984646910215
  C   -2.31594422045652      5.77722814556635      2.10820377054608
  H   -1.25913517476006      5.99639284067553      2.24026990601119
  C   -3.17023745293994      6.81219965840707      1.67348430156168
  O   -2.57550858586830      8.01765430098649      1.47472714321317
  C   -3.39490965845365      9.10059900825457      1.00268813712405
  H   -2.71965764861857      9.95422138904418      0.91799093489300
  H   -4.19598930183037      9.32680004559804      1.72001668709757
  H   -3.82564087270378      8.86523012834303      0.01974126292011
  C   -4.53663369340622      6.54417623612448      1.46205315317989
  H   -5.20878251190950      7.31749884801542      1.10086364935456
  C   -5.03100540375296      5.25749151932818      1.70036389799239
  H   -6.08607705266309      5.05959209521577      1.50802342993627
  H   -4.51947310815252      0.28091905068760      6.18749620557735
