61
Coordinates from ORCA-job BUNMED-CH3OH_1_2_tpss_d4_lanl2dz_631gpol_Mn2.opt
  Mn  -5.99913002578185      0.68251119741752      4.26146828000215
  Cl  -6.91491041016788     -1.35652644432958      4.98809737382231
  O   -7.62816051633848      1.06093458555690      3.04112922457234
  N   -4.97620080261481     -0.30176768742448      2.87716122765084
  C   -5.21830270398415     -0.29639010043700      1.54072029496561
  H   -6.03966964273139      0.33504054113405      1.21310742084547
  C   -4.46793287688824     -1.03924595741100      0.63149525633806
  H   -4.71427278082830     -0.99921526547717     -0.42656111761217
  C   -3.40782896696214     -1.82200070513018      1.10391546214121
  H   -2.80264126489013     -2.41371191644697      0.42128717677113
  C   -3.13855351727982     -1.82103558906016      2.47817188215159
  H   -2.31966379924194     -2.40761864607236      2.88908420111055
  C   -3.93710579331057     -1.06348627475423      3.33366633882286
  N   -6.95912913863851      1.73194943294899      5.66383087529938
  C   -7.58002114613463      1.22704347846824      6.76733963258286
  H   -7.56244164963667      0.14283760740538      6.84544248953113
  C   -8.21048026945592      2.03963493538519      7.70873195188813
  H   -8.69275447899446      1.57913248087022      8.56747874429692
  C   -8.21249150695114      3.42886478314127      7.53322391584920
  H   -8.69328571679004      4.08425516426418      8.25565158253784
  C   -7.57274114546516      3.95807004778485      6.40487573749701
  H   -7.54051415272967      5.03120148642854      6.22807583718942
  C   -6.96685287812391      3.09281821381989      5.49482635973419
  C   -6.26128821234053      3.55660972133832      4.24734527473055
  H   -6.93811424897359      3.54660547081891      3.38045730318079
  H   -5.87802653634366      4.58160650242141      4.35179175484042
  N   -5.17145673664214      2.58142416650472      3.94422157292217
  C   -4.08351186857844      2.72127367042568      4.96754055368204
  H   -4.56515403171515      2.92337794427646      5.93256192285453
  H   -3.43362688450194      3.57348747019235      4.72604662931538
  C   -3.30727598886619      1.41679053704721      5.04042920116234
  H   -2.81161025946585      1.20182083080844      4.08538347765629
  H   -2.53420274959204      1.45387666723551      5.82069001375344
  N   -4.27868867648387      0.30917279381752      5.28547475896162
  C   -3.75424388759060     -1.01489712375530      4.82757590108615
  H   -4.37725961135472     -1.78345098441442      5.29985772310537
  H   -2.70349546705160     -1.15892294416602      5.11844709512844
  C   -4.65618443866753      2.79922371132401      2.53155599303067
  H   -5.51579488597116      2.58899330339118      1.88370514526624
  H   -3.90568747909479      2.02269289725518      2.35360720704546
  C   -4.08621041912356      4.16873408133302      2.26261492611376
  C   -2.70893933832036      4.42313095069111      2.43948621111609
  H   -2.04246616449901      3.60916478137908      2.72891706028746
  C   -2.17293148083210      5.68884831365425      2.22341306449594
  H   -1.11109000257507      5.88532972423331      2.35107082308430
  C   -3.00969735876339      6.74650472466000      1.81083283070776
  O   -2.39241371444298      7.94409142654182      1.62603673903787
  C   -3.19476047961896      9.04933034089596      1.17937338265230
  H   -2.50379407722074      9.89098292377856      1.09918965280456
  H   -3.98338341585703      9.28139527972701      1.90904249423804
  H   -3.64178766627047      8.83775215257879      0.19804374082083
  C   -4.38251979244081      6.50898301658340      1.60633239924576
  H   -5.04183472052142      7.30104191073563      1.26206433719653
  C   -4.90059126091193      5.22857805585701      1.83063654923342
  H   -5.96095327363886      5.05374061688236      1.64436889485356
  H   -4.49622802679536      0.24911295707537      6.28610241497466
  C   -8.47382501450586     -0.03349874533971      2.53605098487458
  H   -9.04308915388707     -0.47291993075803      3.35845708820995
  H   -9.12302573037254      0.37613299273928      1.75399224361700
  H   -7.79559816430568     -0.78526145359425      2.13349784318396
  H   -8.21091359792291      1.63034587774266      3.58429464354152
