42
Coordinates from ORCA-job CIQVUW_2_5_tpss_d4_lanl2dz_631gpol_Co3.opt
  Co  7.34516422003833      2.81694356944433      4.87257987582544
  Cl  5.54114495487403      2.69161027626535      6.09378828097615
  N   8.56921667439219      3.19402612476219      6.54012473959527
  N   8.28073753054021      4.53193866222042      4.28715809270085
  N   8.28435461512924      1.14978650058599      4.18612186702715
  N   6.29033072077345      2.47796836998456      3.09227355700748
  C   9.22226513785122      4.38653190094308      6.49695602139701
  C   9.90998566887936      4.87216314392049      7.61769783233214
  H   10.41983660395316      5.83037423991435      7.58583932571377
  C   9.91996891607984      4.11198520410865      8.79320083390893
  H   10.44374934804319      4.47822465838075      9.67305286498225
  C   9.23785940329526      2.88892822024833      8.82729242193425
  H   9.20672807718164      2.28000651369853      9.72677977554939
  C   8.56640822356370      2.46607550305726      7.67770875614304
  H   7.99594435183568      1.54027112815781      7.65695221169237
  C   9.12160190691809      5.09759101329615      5.20805664088563
  C   9.82094358541872      6.27167168346426      4.90419949794543
  H   10.49448765776823      6.71339050954652      5.63228295945056
  C   9.65409595646947      6.87148227921181      3.65083901133506
  H   10.19196281834118      7.78500806854262      3.40799928311617
  C   8.79573967412047      6.27911499136096      2.71572774813836
  H   8.64534653993519      6.70811866304377      1.72890176799495
  C   8.12873429378748      5.10776694825508      3.07126511725525
  H   7.46115248169983      4.60147111521862      2.38217199614092
  C   7.77145624127618      0.60542187793811      3.03929387814918
  C   8.33828703120957     -0.54977254937887      2.48853113895962
  H   7.93683648669397     -0.97822268903093      1.57521832007689
  C   9.43404038779828     -1.15017677818553      3.11938484568295
  H   9.87826603542497     -2.04977973990619      2.69961828820428
  C   9.95263805831552     -0.57854332505097      4.28845247096044
  H   10.80650663551068     -1.01064684400056      4.80341091065312
  C   9.35054732938883      0.57456329786464      4.78998443660902
  H   9.71453090113510      1.06558684598782      5.68663678322766
  C   6.61288989082938      1.31512077469911      2.46360303506161
  C   5.86357370755924      0.85716667835171      1.37085567708969
  H   6.11547335130839     -0.07514915353356      0.87423343149673
  C   4.76951631264720      1.61153969741977      0.93085153690152
  H   4.17584653670074      1.26718936414422      0.08731609108837
  C   4.44079719739364      2.80078116903169      1.59486140123297
  H   3.58697689298098      3.40182607236465      1.29386621588158
  C   5.22579451097592      3.19877127268729      2.67922913216755
  H   5.00196313196175      4.09867474096553      3.24818192750875
