48
Coordinates from ORCA-job CIQVUW-CH3OH_2_1_tpss_d4_lanl2dz_631gpol_Co3.opt
  Co  7.26768786438448      2.78823688843537      4.91632602076207
  Cl  5.97888221145621      1.20183339346593      5.86122989790902
  O   5.87176888684715      4.05923216533314      5.55813360604796
  N   8.33528508497770      3.12169352482932      6.51266349502629
  N   8.36762502966223      4.19061914922004      4.16063427122491
  N   8.41358541654251      1.43325066024276      4.20852863686748
  N   6.24564089276525      2.47311509425911      3.30971393979389
  C   9.27664709543665      4.10340600658107      6.35701011375488
  C   10.10552099580550      4.47963561082264      7.42047869758206
  H   10.84899400971996      5.26030144683110      7.28767026179673
  C   9.96427189340314      3.84371798995018      8.65883558597955
  H   10.59977483156217      4.12780695627857      9.49436889101455
  C   8.99739191976642      2.84248181172479      8.80308028094235
  H   8.85377265767773      2.32188029847328      9.74618951199076
  C   8.19856091166782      2.50326547057664      7.70702142468213
  H   7.43841872422480      1.72849652488414      7.75561469601479
  C   9.30932311556670      4.69370533144664      5.01445186151035
  C   10.19337876557451      5.69622306941957      4.59633992275531
  H   10.93723298465463      6.09215333249760      5.28173875898966
  C   10.11161273923069      6.18330060851431      3.28842321211076
  H   10.79278595116415      6.96086984371148      2.95102595613693
  C   9.14375922825276      5.65683218130864      2.42532456657417
  H   9.04409710737562      6.00731278728313      1.40158905244985
  C   8.28958946926941      4.65786176554957      2.89660157960721
  H   7.52316829641462      4.22086104432668      2.26684283934177
  C   7.96204615903803      0.86782580771381      3.04823167444717
  C   8.66187653968203     -0.18484925832124      2.44796642137949
  H   8.29074287596861     -0.62910950852103      1.52903017078395
  C   9.83086230380802     -0.66386836094847      3.04445953242961
  H   10.37984785403181     -1.48624791733518      2.59231186348882
  C   10.27719373084970     -0.07397004035764      4.23219425651170
  H   11.17742993351736     -0.41685557530037      4.73476691940894
  C   9.54087034667020      0.97296429697135      4.78909520819810
  H   9.84067079813675      1.44673767176438      5.71527895635037
  C   6.72049552413022      1.45091885711319      2.54081748068468
  C   6.03436715984855      1.04234640156474      1.39138632064714
  H   6.41581607278305      0.22491542388230      0.78647931265215
  C   4.84580671970556      1.68953025720847      1.03934035353889
  H   4.29634720053402      1.37761964586642      0.15441058795977
  C   4.37244141982460      2.73403480988207      1.84218389315798
  H   3.45100897624304      3.25911756470890      1.60560074154393
  C   5.09806410417204      3.09885429672608      2.97844502577495
  H   4.77798474295201      3.89141094166584      3.64600816850813
  C   6.11506629556357      5.27713200467044      6.33722438461624
  H   6.76154750246031      5.90640037575317      5.72429749762024
  H   5.14825049375587      5.76562900660525      6.48969868608017
  H   6.58560168461154      5.03806604466720      7.29520918015108
  H   5.30982547830999      3.43086429805447      6.08280628320091
