43
Coordinates from ORCA-job CIQVUW-oxo_2_1_tpss_d4_lanl2dz_631gpol_Co3.opt
  Co  7.11453606584023      2.91644089734652      4.99077655437591
  Cl  5.88891442335926      1.22803036719485      5.89801296773475
  O   5.96241957283705      3.95243758112740      5.57804683534611
  N   8.21230698273950      3.24057724951946      6.58891533510126
  N   8.27121164352410      4.28047779089160      4.20775368999986
  N   8.31344966364585      1.52100123404502      4.24522562150056
  N   6.10772776609468      2.55063130905776      3.37829171706723
  C   9.14515784084070      4.22562774944742      6.42277794413716
  C   9.94107933332045      4.63169827067279      7.49977935064481
  H   10.68258369434990      5.41437260801428      7.36811149065024
  C   9.75928320344666      4.03246509632464      8.75162698612173
  H   10.36421016286458      4.34718950033659      9.59878998097290
  C   8.78538274418418      3.03955614004567      8.90057849611381
  H   8.60229549409570      2.55738297632360      9.85710942149659
  C   8.01715808966858      2.66628722664891      7.79274280229403
  H   7.23701375177868      1.91244414563637      7.84820350208633
  C   9.19646529256275      4.79036080983069      5.07218742922589
  C   10.08494351480171      5.78501747579882      4.64400541308524
  H   10.82193547001330      6.19064245068936      5.33123510245899
  C   10.01061119362761      6.25611579629976      3.33012911779404
  H   10.69239228441971      7.03183059212378      2.98945006456817
  C   9.04750858116801      5.72354098528746      2.46496456473034
  H   8.94981678823363      6.06755590244156      1.43881681987704
  C   8.18791552317581      4.73143096075839      2.94048679442898
  H   7.41818311641227      4.29325844197838      2.31540050410102
  C   7.87368293131157      0.99190578702870      3.06381507574820
  C   8.58029634914007     -0.03751207153743      2.43218106048729
  H   8.22254683019166     -0.45410918198602      1.49510680956998
  C   9.74303913393896     -0.53500080102626      3.02835637469475
  H   10.29846525153052     -1.34093530711897      2.55454085102015
  C   10.17394768840889      0.00929508817092      4.24439526766404
  H   11.06627799355151     -0.35563708285503      4.74590875050379
  C   9.43030386846431      1.03796651902550      4.82557103422138
  H   9.71467273637983      1.48036769328969      5.77347270640126
  C   6.62099394829145      1.57302325989413      2.57601214817555
  C   5.93403111736247      1.19098594962306      1.41701700495353
  H   6.33828500930344      0.41411329149646      0.77448767562797
  C   4.71562530842803      1.80437896718899      1.10653971543259
  H   4.16918816303467      1.50727912913594      0.21449566897799
  C   4.20142951138481      2.78767465450673      1.96104976058476
  H   3.25083934669065      3.27573905646313      1.76260630837812
  C   4.92378101360561      3.13687995870854      3.10382945223530
  H   4.57009160197630      3.87211153215072      3.82149582941013
