44
Coordinates from ORCA-job CIQVUW-OH_2_4_tpss_d4_lanl2dz_631gpol_Co3.opt
  Co  7.09783464546444      2.85262718195960      4.96423324445712
  Cl  5.94571363781145      1.23285961598687      5.99552999569537
  O   6.00756200594655      4.12502578473056      5.52307640484993
  N   8.38412218791505      3.19437732844866      6.68380367623417
  N   8.36803288166237      4.26597962389828      4.26762064245701
  N   8.22092101287405      1.45409200043065      4.12386243404349
  N   6.06271943425960      2.56324290925543      3.16712260190015
  C   9.15809346611778      4.30333385758950      6.53567096738729
  C   9.84508491216650      4.85076955656280      7.63007903746416
  H   10.45019012247131      5.74497715290148      7.51322119025117
  C   9.72172081590028      4.24654289284753      8.88582284602895
  H   10.24210362576111      4.66398379782901      9.74471996863215
  C   8.92069363582823      3.10696089877223      9.02102031477165
  H   8.80463749394351      2.60163296858260      9.97628136863637
  C   8.25426348656977      2.61485815104992      7.89278096667662
  H   7.60457803960347      1.74484379627749      7.94394603326827
  C   9.19867722441765      4.85744975694234      5.17216519568007
  C   10.04173593423967      5.90685285996372      4.77640917108065
  H   10.70854563360656      6.37403195731428      5.49476543600051
  C   10.03019369392512      6.33831197306279      3.44803568493913
  H   10.67906202831856      7.15204781161995      3.13268865065450
  C   9.17940712975401      5.70723746559568      2.53171680829628
  H   9.13446075378730      6.01436112414034      1.49030471833278
  C   8.36272468203172      4.66851144124833      2.98198730474570
  H   7.67206577829990      4.15694424210392      2.32026520720444
  C   7.75056192022850      0.90902233090207      2.96002140579755
  C   8.44737831519262     -0.13914877564892      2.34270350151487
  H   8.07335586838906     -0.56748474220133      1.41742959810393
  C   9.61998491553736     -0.62963334438281      2.92222238587407
  H   10.16267435288478     -1.44638306841216      2.45227407766311
  C   10.08178124218211     -0.05705515772630      4.11293834472716
  H   10.98784069503040     -0.40636461219971      4.60057056948255
  C   9.35157186835930      0.98574929146794      4.68804414208353
  H   9.65550994920848      1.45616585794933      5.61619943768049
  C   6.50815149755730      1.49618173063423      2.44576386987500
  C   5.79777403759285      1.04343571842810      1.32568439889634
  H   6.14683666995340      0.18792067605606      0.75461902254552
  C   4.62022058298700      1.70371445713582      0.95813427805632
  H   4.05285823775024      1.36173837677246      0.09569503334945
  C   4.17826248870660      2.80099579216923      1.71117451092389
  H   3.26553615091946      3.33304282686587      1.45616840908654
  C   4.93022074372408      3.20260690888156      2.81909526730449
  H   4.64115060110256      4.04096386430663      3.44820974480559
  H   5.33762560001737      3.73003571988773      6.13832213254131
