43
Coordinates from ORCA-job CIQVUW-oxo_2_3_tpss_d4_lanl2dz_631gpol_Co3.opt
  Co  7.09235791015747      2.91786535516165      4.99928498779534
  Cl  5.92962949626539      1.19508923420943      5.89170120386963
  O   5.98741021857755      4.02488556671697      5.54160575979241
  N   8.19402724636054      3.24274677696578      6.59807022649081
  N   8.27177630880935      4.27295451753333      4.20629146147001
  N   8.30835124643636      1.53653666114437      4.24444970851306
  N   6.08833968116230      2.54610237921733      3.38766761135358
  C   9.14075264518071      4.21376935782477      6.42432970844713
  C   9.94236947877963      4.61394055137241      7.49928127828331
  H   10.69536829239299      5.38477295800109      7.36309974550173
  C   9.75182856790020      4.02542775799335      8.75504919825836
  H   10.36164410609175      4.33670602565398      9.59999772095089
  C   8.76346496952863      3.04818179783454      8.91075114138697
  H   8.57379352940878      2.57438460786843      9.87017390132062
  C   7.99008149092739      2.67863524169467      7.80521272680493
  H   7.20109701074239      1.93402432150087      7.86306176768756
  C   9.20209479323163      4.77198962849551      5.07037207554284
  C   10.10578819921954      5.75218436422405      4.64020309715911
  H   10.84812151853240      6.14976880706619      5.32635812286392
  C   10.03939773232958      6.21997930272063      3.32454324361053
  H   10.73289321621155      6.98450434777303      2.98221006331543
  C   9.06913536123037      5.69951144319024      2.46005096827162
  H   8.97768289728952      6.04206798218548      1.43284340003000
  C   8.19490546038812      4.72141705418562      2.93847896156042
  H   7.41903388439583      4.29183141258522      2.31453173253987
  C   7.87499845863171      1.01274057321533      3.05956391482563
  C   8.59375238185426     -0.00407043420469      2.42122925957503
  H   8.24105936438011     -0.41792424148126      1.48100739897246
  C   9.76148212702069     -0.49296916708320      3.01493103144004
  H   10.32596757364321     -1.28943837539158      2.53591142052412
  C   10.18461337373792      0.04657371207057      4.23533022363277
  H   11.07923845136995     -0.31323296313616      4.73645397554197
  C   9.42900947568184      1.06293925646819      4.82343021064540
  H   9.70563508534577      1.49944696460442      5.77623312689177
  C   6.61345928660395      1.57993416401676      2.57860559662764
  C   5.92876265243956      1.19548949980872      1.41927330888533
  H   6.34252084878012      0.42799075321936      0.77155256939362
  C   4.70087901983675      1.79286893812808      1.11528228904810
  H   4.15617270748154      1.49250685738959      0.22327642197532
  C   4.17534720811911      2.76476969807775      1.97588407902680
  H   3.21787375516206      3.24118005386080      1.78245550888564
  C   4.89620282257661      3.11818736376515      3.11798033077980
  H   4.53368014578451      3.84862989355307      3.83627952050826
