48
Coordinates from ORCA-job CIQVUW-CH3OH_2_3_tpss_d4_lanl2dz_631gpol_Co3.opt
  Co  7.28033472410966      2.72750744567022      4.96573039508578
  Cl  5.92895380845946      1.24103331246395      5.92318781069954
  O   5.77571104312843      4.27513950746959      5.63879233839087
  N   8.32436288310359      3.12055837312875      6.58402604753861
  N   8.37968412345657      4.18728169661143      4.21360794262167
  N   8.53599840784124      1.28894864199317      4.10640945995421
  N   6.28353037279496      2.36656217620683      3.32687008774336
  C   9.24622526473025      4.12402792219975      6.43220499369305
  C   10.06228040056271      4.51416352219892      7.50076311115230
  H   10.79015946703558      5.30999197957163      7.37192429377381
  C   9.93346252819156      3.87154280070768      8.73675003434038
  H   10.56163218382273      4.16650580607575      9.57403230196541
  C   8.98932974288953      2.84882600761923      8.87551189217648
  H   8.85552375525289      2.32052632444120      9.81573564990147
  C   8.19926892947258      2.49829382889893      7.77668745689194
  H   7.45106938449539      1.71286916014490      7.82905890441526
  C   9.28192876786985      4.72073451001832      5.09312032779941
  C   10.14253104312175      5.75100137399717      4.69405695966900
  H   10.85817651116874      6.17285502414600      5.39374935483331
  C   10.07280726060833      6.23539748656135      3.38411812785003
  H   10.73476919103035      7.03639904565080      3.06331336790634
  C   9.14460594050774      5.67796696686051      2.49508682485602
  H   9.05949412762603      6.02774801688467      1.46983970690714
  C   8.31592452388626      4.65048987251661      2.94652260609681
  H   7.57969742969714      4.18467242202249      2.30054405370629
  C   8.01985709057660      0.75131225215873      2.96845477746345
  C   8.66100746523661     -0.31021663395771      2.31650244866008
  H   8.24293126967539     -0.74441248903802      1.41307129656941
  C   9.84896398945451     -0.81741053448244      2.85318379091621
  H   10.35769413353098     -1.64472203204623      2.36398017040425
  C   10.37006015208576     -0.25437086784835      4.02518280623225
  H   11.28790754291081     -0.62610876648660      4.47265453052101
  C   9.67880879026488      0.80177051482195      4.62365609479226
  H   10.03064603213571      1.26889538953787      5.53955822393148
  C   6.76184134937927      1.37011541819385      2.52363179064335
  C   6.05462717211348      1.00403725786279      1.37011458731076
  H   6.43396773491919      0.21628494719460      0.72603948190456
  C   4.85608403096681      1.65123472601281      1.05736193499564
  H   4.29819394938389      1.36466559750175      0.16898006092738
  C   4.38154933411052      2.66170311387369      1.90245711430508
  H   3.45090046642689      3.18455463646775      1.69951886490974
  C   5.12117241148063      2.99068322377221      3.03900311658040
  H   4.80843145457246      3.75285762221801      3.74644155303131
  C   6.03465595698656      5.57705545942560      6.24133380900081
  H   6.59932701743119      6.14690815471830      5.50093481918346
  H   5.08145437253271      6.07612187383019      6.44323612516731
  H   6.61248363506322      5.47259634714420      7.16717881946090
  H   5.22291283389829      3.74296156506511      6.25295973312023
