167

  C   -0.06915992677910      6.18074967092546      8.91494979995112
  C   -0.35993761492525      5.26159901018158      7.86172108332278
  C   0.28303158381749      5.43357625124585      6.51053445217385
  H   -0.07905359073254      4.68068275426428      5.81418272344839
  H   1.36566652043833      5.35231362713047      6.57911148085004
  H   0.05155638735469      6.42578340998787      6.11866765288942
  C   -1.28937759319616      4.20603417040369      8.06216672649594
  H   -1.45768199000689      3.49594933215309      7.25781923265884
  C   -2.00803537422534      4.07308227808008      9.27454549522725
  C   -3.10435034685404      3.05588144414611      9.43659938802847
  H   -3.07577120608903      2.32742978792713      8.63084289952752
  H   -4.07294408542257      3.56082323649080      9.41132615429914
  H   -3.02311624211333      2.53817665297863     10.39152886264596
  C   -1.74147027537705      5.00393706905003     10.30813523256213
  H   -2.30880262726723      4.94457770574203     11.23265719301693
  C   -0.78606075966937      6.04238748622756     10.14717065826716
  C   -0.66967111824342      7.09602384994480     11.21503714781059
  H   0.23200745297075      7.68840177965895     11.07559136864770
  H   -0.67018534082328      6.65714879314574     12.21014522154374
  H   -1.53161578039170      7.76468879301288     11.14897202580746
  C   1.07700769963804      8.32165739295701      7.63871647590123
  C   -0.06903348598655      9.14826837099540      7.43515746084382
  C   -1.29704181656241      9.00150966987432      8.30162750917964
  H   -2.10559282947541      9.62472679177636      7.92451560980710
  H   -1.07416468231044      9.30819729774916      9.32314443720522
  H   -1.63092956601509      7.96580647820358      8.32170566982609
  C   -0.06663847401883     10.14952376529069      6.45414479478431
  H   -0.94494104520567     10.78412387970875      6.33374444870920
  C   1.04352344226393     10.34915837837402      5.61460398618094
  C   1.01567080093803     11.42257374902625      4.55673175815032
  H   0.23134499116184     11.21325296596603      3.82820886832416
  H   1.96882876870398     11.47856503394380      4.03543816126723
  H   0.80430153535982     12.39279718995280      5.00679293151851
  C   2.15684825454983      9.51416554143696      5.77883271563111
  H   3.01916559078436      9.63457243612570      5.12262458418567
  C   2.19327889883472      8.51890852948957      6.77218047410339
  C   3.43157930988901      7.65343148069899      6.82935706388359
  H   3.80404554054852      7.47470285720009      5.82085191750066
  H   3.23792810145846      6.69850849175049      7.30867820797178
  H   4.21666016133541      8.15562170434972      7.39521623833535
  C   2.36833970380378      7.04630750613993      9.64144763155891
  C   3.21841509891434      8.15708746706354      9.88304310776302
  H   2.85251499992021      9.13083561276950      9.56126114896629
  C   4.48199012544757      8.07263074295603     10.49816475169782
  C   5.26568231122071      9.35557980751805     10.77954464384912
  C   4.42568479172597     10.24903541724597     11.70151546488364
  H   4.96536607590250     11.16490713614871     11.93472883654311
  H   4.20978318279181      9.72857546976192     12.63304656776399
  H   3.48159712591869     10.51926538097522     11.23576822790774
  C   5.54214410974275     10.08549870292744      9.45899010033840
  H   6.12784169468934      9.45188573413510      8.79492862609398
  H   6.10400973270138     10.99899612179098      9.64479955377140
  H   4.61858671668398     10.35206060244616      8.95121290066716
  C   6.60478955475964      9.08443137464926     11.46766231759415
  H   7.25909006090709      8.49044226453737     10.83338326218584
  H   6.45972778458244      8.56823156650656     12.41423812791467
  H   7.10578601980070     10.02892553256455     11.67286764302260
  C   4.98904043802764      6.78946511490215     10.79326263711638
  H   5.99007660987431      6.66375422127859     11.19976003242037
  C   4.20820189469374      5.65465446164205     10.56301170716798
  C   2.86167309668337      5.78090023285268     10.07955457172588
  C   4.44808818900680      4.23654200572851     10.72225034031303
  C   5.56227854456639      3.45397250656002     11.04446724385056
  H   6.50762850711430      3.93518652421701     11.29374360500996
  C   5.45543641699773      2.04875635116801     11.01479823442589
  C   6.68759243108867      1.20067608726982     11.34109655931161
  C   7.19432362340937      1.55809929111592     12.74397527843056
  H   7.46059658038000      2.60914085954934     12.81693133987198
  H   8.07572002379894      0.96754983399084     12.98725851859551
  H   6.42428936586154      1.34813458385094     13.48293323012761
  C   7.77786470729742      1.49946536404025     10.30339909777087
  H   7.41824304943431      1.26273799516948      9.30371894069362
  H   8.66420783014776      0.90001494134513     10.50285756964119
  H   8.06385514718935      2.54788516388823     10.32065854297830
  C   6.39561481608569     -0.30066984320941     11.31160522392894
  H   6.07794299459835     -0.62068541280376     10.32209555761818
  H   5.62333473112401     -0.56330420033513     12.03114743561946
  H   7.29969249225281     -0.85007052433476     11.56908665976333
  C   4.21504844481611      1.46430134277296     10.66968534525571
  H   4.13040516423257      0.38304473648809     10.66592304093691
  C   3.06329209871374      2.20363208644456     10.31133649445416
  C   3.22673528005715      3.60316961702203     10.36396632942767
  C   1.57983857398068     -0.02875872492924     10.38265033020036
  C   2.30269582611306     -0.94537975454473      9.54638618528566
  C   2.92391917955590     -0.52552008177974      8.23276972783155
  H   2.14718941565761     -0.33429899711405      7.49324898737322
  H   3.56934236312520     -1.31630757420206      7.85353680564709
  H   3.51187039305111      0.38033834711436      8.34270899514565
  C   2.45682556642779     -2.29582067093447      9.89987569673792
  H   3.02583858004628     -2.95189160407794      9.24019136602411
  C   1.89355308000276     -2.82573451819610     11.07024664693634
  C   2.08950352989652     -4.27413193448348     11.44170870346820
  H   1.96172605792872     -4.91412146456841     10.56949076123416
  H   1.37889479749342     -4.57586813499988     12.20861581263276
  H   3.09867022883206     -4.42780100590921     11.82773192652088
  C   1.14521986003975     -1.95668588298694     11.86738059729529
  H   0.66329664270558     -2.33573466818967     12.76949271072189
  C   0.98063565391942     -0.59345263010742     11.54321820889998
  C   0.05978839103153      0.15260302353965     12.47816293193233
  H   -0.95237697376058     -0.24467609139963     12.37943054710145
  H   0.03959168457561      1.21782434449271     12.27240563456239
  H   0.37445718902945      0.00048989130865     13.50946216668013
  C   0.99355627180528      1.79706527701833      8.45070028572630
  C   -0.24911490689386      1.12808806241815      8.16270375612767
  C   -1.03363168404132      0.41107571511274      9.23228473419481
  H   -2.05368812382164      0.22617509544544      8.89916822059248
  H   -1.05467777991685      0.98581266274202     10.15323368523570
  H   -0.57110057928861     -0.55229102745649      9.44428235475127
  C   -0.76541747154900      1.06542789474134      6.86301418180018
  H   -1.69616818905645      0.52536462130048      6.68331936496077
  C   -0.09861785933332      1.66045896262595      5.77570631586652
  C   -0.66288103083295      1.56487368694965      4.38064533982800
  H   -0.08936282887314      2.17671795812080      3.68716405304978
  H   -1.70273273913776      1.89316844752112      4.36245971103003
  H   -0.63388594684947      0.53038201120483      4.03541356116399
  C   1.11073128197392      2.31384784588495      6.03484409390236
  H   1.66085583017498      2.75582638916935      5.20369570941609
  C   1.66489892597997      2.39191028301775      7.33072902381144
  C   3.01387273991519      3.06127612007857      7.41540258788011
  H   3.44205864950730      3.17016212493970      6.41975630955656
  H   3.70518189250532      2.49529372949971      8.03455449320330
  H   2.92194968910691      4.05156517786865      7.86018566155039
  B   1.11454496549897      7.21755464531022      8.75945720114253
  B   1.68919213210595      1.52119595634595      9.89612977721957
  Co  0.37629962558425      3.95913439483013      9.78353734961202
  N   2.25460281042615      4.53957722029122     10.00864017384795
  Sn  0.90698608472036      3.88080406743606     12.48366552038130
  C   -1.14150289323231      3.83682081043321     13.31759814406247
  H   -1.78662714371970      3.17818354006277     12.71213907073751
  C   -1.20709250522975      3.38937394877548     14.78022157768490
  H   -1.57242623018054      4.85041651553747     13.25284719716214
  C   1.86049015555616      5.77998724229871     13.03153027279386
  C   1.38550122979224      6.32386466458793     14.38259277336021
  H   2.93751537312213      5.55259654608812     13.09070843388793
  H   1.74623366200321      6.54995709481005     12.26095004600741
  C   1.95402421384783      2.58660918807498     13.91198428996595
  H   2.34727977739302      3.34265884635485     14.61502556416764
  C   3.08491256437008      1.64000128931399     13.52972749786088
  H   1.17695603934755      2.02350563089264     14.45331915607821
  H   0.72880262877851      2.55372392411941     10.81037263979985
  H   -0.93103447336254      2.33966165210546     14.85416808695689
  C   -2.60981065091887      3.57828619811542     15.34990714326847
  H   -0.49750938240469      3.96375290373153     15.37341878840502
  H   -3.32199840636300      3.01844034619540     14.73968884436083
  H   -2.88163506529951      4.63478481665552     15.29187184427374
  C   -2.69953687022647      3.10992841604043     16.79632115199198
  H   -2.45264538827913      2.05324447212736     16.86915927220426
  H   -3.70405865880933      3.25703055216167     17.18629078844868
  H   -2.00274982105561      3.66696699478244     17.41869602519004
  H   1.57509417880383      5.59302984192092     15.17022900654570
  H   0.31112319893920      6.51562742942937     14.36271433280013
  C   2.11574221689705      7.62340696065924     14.71739184493698
  H   3.19028090594624      7.43144365054882     14.74754119748068
  C   1.66067716184766      8.19736818966893     16.05354326791985
  H   1.93154433018846      8.35160157229024     13.92406518712443
  H   1.85317761876518      7.49049745082936     16.85775347971201
  H   0.59379271691220      8.40986086838518     16.03424224660651
  H   2.19042940073292      9.12111475490481     16.27431005900660
  H   3.92114712257368      2.21631095034890     13.13734086715673
  H   2.74465877117167      0.96046429207994     12.75014963608049
  C   3.55901365318474      0.80682554880726     14.72202363642928
  C   4.21081819865010      1.63740186311104     15.82140907843966
  H   4.27973371299379      0.07098547998069     14.35723303674291
  H   2.71240421521982      0.25661235471860     15.13885286958831
  H   5.00586977288229      2.25498269151988     15.40901228727390
  H   4.63776848211131      0.99073430007094     16.58496009313842
  H   3.48276489512371      2.28871302045894     16.29792852891838
