167
Coordinates from ORCA-job DBCCo--HSnBu3_0_3_tpss_xtb_d4_lanl2dz_631gpol_Int-BH.opt.activeRegion
  C   -0.24372897074777      6.07428588074621      9.04305641419579
  C   -0.52229135921708      5.04974029165228      8.07569183054241
  C   0.10408324724939      5.11835591882796      6.70908710434053
  H   -0.26710548320990      4.31830190802044      6.07199462539906
  H   1.18619584259810      5.01877275896165      6.77631204916957
  H   -0.11403037826989      6.08263438054394      6.24634937581837
  C   -1.38713068598852      3.97029765295746      8.39316803360807
  H   -1.53221947775994      3.18220136378468      7.66036007741595
  C   -2.02832284508216      3.89096958824417      9.65637690867599
  C   -2.99189209140727      2.78574138161112      9.99503942306820
  H   -3.07332968589539      2.07414676925766      9.17701470639834
  H   -3.98035640375335      3.20561698742116     10.19270703427774
  H   -2.66924751291672      2.25650744740415     10.89269156806519
  C   -1.79208255564524      4.92919266701606     10.59442216982690
  H   -2.31117048243318      4.90653332602543     11.54907752415526
  C   -0.91064301146210      6.01108056043564     10.30491135302900
  C   -0.75560075372615      7.12265967696815     11.30681045949006
  H   0.12642408438732      7.72016479482471     11.08393155897650
  H   -0.67804096090425      6.73267671898246     12.32023909863085
  H   -1.63290923992044      7.77281224158550     11.26709477215751
  C   0.86303172998735      8.13937514866896      7.60156917694753
  C   -0.30925609491385      8.91338233338342      7.34707605157391
  C   -1.54142620574660      8.76489332579668      8.20724543725185
  H   -2.35260250632676      9.37730333204406      7.81845696748933
  H   -1.33019521934143      9.08073846777345      9.22805281480714
  H   -1.86892729619799      7.72688048095288      8.23266537819933
  C   -0.33054908522285      9.86198374519693      6.31475221892299
  H   -1.22855114462286     10.45882606204277      6.15495514098306
  C   0.77960289601223     10.05208541852653      5.47448704911651
  C   0.74642316777175     11.08082883906429      4.37396438324720
  H   1.39061120758426     10.78466476624625      3.54820993127048
  H   1.10151797657484     12.04066508594775      4.75421670830452
  H   -0.26757123586110     11.21798741920737      4.00270680570067
  C   1.91979342307133      9.26351380417720      5.68953475811012
  H   2.78033912609915      9.37734170347368      5.03020658472182
  C   1.98158022656489      8.32598723223715      6.73393164911823
  C   3.24092537912472      7.49732510619365      6.84441274010156
  H   3.65700930875908      7.32378322074432      5.85259493823962
  H   3.05339640739186      6.53814101052195      7.31837347871727
  H   3.98946210870034      8.02267669305024      7.43803240005680
  C   2.19379152764775      7.00656627658352      9.66819750997407
  C   3.01539377663369      8.13953814929964      9.89286400173982
  H   2.63524450011014      9.10035956748726      9.54994459670676
  C   4.27772318727809      8.08426168632352     10.51717058233186
  C   5.04034542621789      9.38497038432255     10.77410139730238
  C   4.18065474067818     10.28864064396491     11.66739617254689
  H   4.70587044172745     11.21777933874247     11.87921768740820
  H   3.96881923075499      9.78937937223490     12.61110227400364
  H   3.23515545594267     10.53351561849335     11.19074487356009
  C   5.31603982844816     10.08361108191066      9.43625434736306
  H   5.91207289463201      9.43990047204095      8.79149188544589
  H   5.86733524006509     11.00694951865933      9.60251011206137
  H   4.39304058746671     10.32816491818991      8.91659096877910
  C   6.37741254947433      9.15072160655825     11.47927763304112
  H   7.04787984888591      8.55482932201310     10.86398849111130
  H   6.23195758401110      8.65392621627727     12.43596488045205
  H   6.86022446288639     10.10785902765335     11.66770218526139
  C   4.81065271291921      6.81674150103863     10.84113770428777
  H   5.81080090397191      6.72160608709518     11.25640358933854
  C   4.05556111639958      5.66341411630578     10.62196196700476
  C   2.71907932551030      5.76812446403796     10.12436657006631
  C   4.32384329687475      4.24068863008150     10.78113226341065
  C   5.44387731616221      3.47763768391034     11.11667677629582
  H   6.37241659504623      3.96596353112700     11.40905013051211
  C   5.35766386931949      2.06730960718038     11.04476073960895
  C   6.58979800582869      1.23600161410203     11.40855370974386
  C   7.00242194328837      1.55378680677353     12.85146261134595
  H   7.23578158089208      2.60756088117658     12.97816878705625
  H   7.88246917221963      0.97553889190368     13.12639610987299
  H   6.19474366197914      1.29794003645957     13.53332340421374
  C   7.73037375816611      1.59853673841538     10.44761216544004
  H   7.43121266341602      1.40055523198925      9.42006272542753
  H   8.61356750675085      1.00328440492924     10.67110019723103
  H   7.99891867089416      2.64865339403249     10.52615040943428
  C   6.33902872090042     -0.26947342430005     11.30691066003480
  H   6.09186249002136     -0.55897907204278     10.28845276045245
  H   5.53087002125978     -0.57714820204091     11.96630922013947
  H   7.23914921187431     -0.80663103685102     11.60093103148660
  C   4.15381701347666      1.46566467027806     10.60918861627561
  H   4.10184642644988      0.38368770651712     10.54887594801925
  C   2.99944672633345      2.19058263143586     10.23058009910331
  C   3.13233892262602      3.57960232571766     10.39079161654268
  C   1.47931291586553     -0.01144605065909     10.10726207417136
  C   2.28930873486000     -0.97601869231936      9.42282425720280
  C   3.07704846720533     -0.62587391201967      8.17884441565136
  H   2.40296857731394     -0.55147237981388      7.32516126457128
  H   3.81129127643508     -1.40191427939089      7.96652569385335
  H   3.58785031931650      0.32520210682264      8.27874766829323
  C   2.36016294494743     -2.31307080651311      9.84787746405997
  H   2.99964706103131     -3.00956008243873      9.30334955870000
  C   1.62239648910765     -2.78117327116598     10.94654919973483
  C   1.71490643439467     -4.22152372351131     11.38543872703117
  H   1.30456541811393     -4.87775033415845     10.61651338584085
  H   1.16062938065020     -4.38026224884613     12.30824478857629
  H   2.75515868427155     -4.50377485290825     11.54764379099901
  C   0.78336523779222     -1.86706930335945     11.58958848783124
  H   0.16542375659982     -2.20295758531404     12.42397636423357
  C   0.70025191815709     -0.51749342423476     11.18658841258227
  C   -0.33587964592858      0.29526737989768     11.92749891259086
  H   -1.32856970848762      0.04546041140950     11.54586946906290
  H   -0.17308343581514      1.36273548417558     11.81150043663465
  H   -0.31984741567880      0.04705551684608     12.98734841908164
  C   1.31190105556993      1.76560159913119      8.03580856063974
  C   0.12332443087340      1.16640608503650      7.50913110420774
  C   -0.82208079891195      0.37611072589900      8.38195840431297
  H   -1.78661690201757      0.25454404275665      7.88866075476489
  H   -0.96184294414738      0.86272149744531      9.34091438570717
  H   -0.41051328678921     -0.61532021114824      8.56988965802204
  C   -0.21219017897510      1.24981807011212      6.14632305260877
  H   -1.12383298424291      0.76434279847896      5.79278007874719
  C   0.61332130128617      1.91383519222748      5.22561412677220
  C   0.26431980277205      1.97739281332332      3.75934670855609
  H   0.63859319488118      2.89757466042842      3.31301466956315
  H   -0.81378144720537      1.92566753067661      3.61478023627073
  H   0.71753789396803      1.13585873569149      3.23211372146650
  C   1.79505569437500      2.48178394678219      5.71848769701298
  H   2.46880175661010      2.98244310829330      5.02153965850658
  C   2.14860458649632      2.42313613406946      7.08336836432281
  C   3.46940934953378      3.07241613754323      7.42982834334723
  H   4.06244749874846      3.21766572446822      6.52744605726549
  H   4.04318824991762      2.47173785497443      8.12960592403280
  H   3.30790489721908      4.04738339080521      7.88877631895630
  B   0.92138143011753      7.11221879835685      8.78349357717258
  B   1.62998921545803      1.55109881990740      9.63855541144272
  Co  0.33272742377701      4.01051921073920     10.08273101234912
  N   2.13528265991742      4.50496909899522     10.05506161447683
  Sn  0.76404793734187      3.97360007732640     12.72969101123661
  C   -1.18286394977380      4.12943416800587     13.77488416472204
  H   -1.88971208847382      3.39472949695297     13.35140350871287
  C   -1.07537658784871      3.88697008956302     15.28411872703540
  H   -1.62886734856083      5.12719935720531     13.62015119242640
  C   1.93666662570607      5.75430480988688     13.23551797674451
  C   1.62475302988899      6.36305221380910     14.60838951705512
  H   2.99622570904816      5.45272243882147     13.20746913626761
  H   1.81712462928184      6.52948534236834     12.46574400007374
  C   1.62878590373958      2.35613236032142     13.92589919502345
  H   1.91555152806611      2.90137447088950     14.84479605429066
  C   2.80998866876334      1.53191080354975     13.43198378905313
  H   0.80169607450173      1.68086636296111     14.19492767717356
  H   0.68295833592699      2.28986979574989     10.23738940623240
  H   -0.71016400102238      2.87921588046401     15.46764086855906
  C   -2.42604948027337      4.06632105962151     15.97109932332264
  H   -0.35892823573130      4.58163474233422     15.71667064880774
  H   -3.14580962291445      3.36986462706447     15.53505080587338
  H   -2.79137318372819      5.07945322978177     15.78651186258039
  C   -2.33136535600704      3.82773747580732     17.47232082583615
  H   -1.98552364492867      2.81658704579244     17.67451152300946
  H   -3.30162753721623      3.96169375868881     17.94552279247173
  H   -1.62853963319803      4.52502004999392     17.92299468861140
  H   1.82454218172105      5.62915156116889     15.38955242280347
  H   0.56950513223401      6.63411256555816     14.66730017054229
  C   2.47233022216140      7.60822613583161     14.85852865724670
  H   3.52895516385093      7.33839821319512     14.79855957467791
  C   2.17977277895513      8.23028547587166     16.21831369280575
  H   2.27214140187357      8.33944045281774     14.07123576452400
  H   2.39144591789507      7.52015253134360     17.01471545030863
  H   1.13294745440181      8.51859725544016     16.28820159807186
  H   2.79102021669295      9.11615865114420     16.37662068484565
  H   3.64875020673122      2.18995378041851     13.20380247210636
  H   2.52420609311943      1.01462463767945     12.51705880057935
  C   3.24943160828672      0.48397509690064     14.45612526597538
  C   3.83900846801464      1.08394017785078     15.72736491776481
  H   3.99807596219341     -0.15776975643643     13.98526808726876
  H   2.39571485817422     -0.14629055421223     14.71346264124021
  H   4.64339485726610      1.77507082194293     15.48392579444227
  H   4.23986845990216      0.30082237006395     16.36747818022205
  H   3.08211757380946      1.62533527842150     16.28877778667154
