50
Coordinates from ORCA-job BAHYIS-OH_2_4_tpss_d4_lanl2dz_631gpol_Fe2.opt
  Fe  2.00768542563687      1.10284559873753      2.62958024024734
  O   1.05594039027250     -0.37550575753868      2.41462005516039
  S   0.11244444192428      2.34016887614558      1.85620081816040
  C   -1.27537357240155      2.16372916262218      3.08877016246300
  C   -0.90538054976937      1.45066725682959      4.39057862326156
  C   0.25138803578200      2.10340705888679      5.17773489440976
  N   1.54230003063498      1.53646519795297      4.74783911643689
  C   2.36339677963629      1.01811538746608      5.61648170563938
  C   3.53122639906138      0.31350636920339      5.02591345565680
  N   3.52652131562694      0.27181547823845      3.67392833725102
  C   4.52497840544941     -0.32097701621403      2.98235520319480
  C   4.44017854126614     -0.15218601430983      1.50585335982470
  N   3.45469682193253      0.59277032605688      1.10793333508650
  C   3.26675877182728      1.03081296506141     -0.27801744592896
  C   2.78281473790073      2.49516297866774     -0.29676680287327
  C   3.55894120367635      3.40723062180307      0.66621561477929
  S   3.22344085040149      3.16165812969816      2.48850827265473
  C   1.86456854054864      4.38089062360842      2.78851222200196
  C   0.61598926766109      4.12655640046892      1.94417372058329
  C   2.18143980398175      1.05518760100321      7.11446676669686
  C   4.56998697790912     -0.29665789716080      5.74851437684332
  C   5.59139227456326     -0.95192241288676      5.05040194152696
  C   5.57819881636600     -0.96358693941684      3.65117090413493
  C   5.48548257834950     -0.80289876465581      0.63990162424117
  H   -0.23759212067077      4.70298192425115      2.32203614517631
  H   0.77252594373385      4.43154157231133      0.90303735145194
  H   6.39686185577815     -1.43992828194740      5.59388686734777
  H   5.54575061625440     -1.87319631510783      0.88003472051780
  H   5.26526807218637     -0.71246422839791     -0.42544704737575
  H   6.47526716319859     -0.36502704672409      0.83369541327460
  H   6.37226021215914     -1.45353801859225      3.09508513323635
  H   1.46257414596625      0.28497331586837      7.43169345243290
  H   3.12072623202552      0.86735172592637      7.63985508534256
  H   1.80698792470866      2.02877969734043      7.44777466759613
  H   2.51109881381010      0.38450999277819     -0.74434889527771
  H   4.20093208734393      0.94124285808639     -0.84468303055546
  H   2.26990629514158      5.38435445134729      2.60075999629390
  H   1.66114896589322      4.29794410655469      3.86153525892784
  H   -2.04745569430824      1.60869237110932      2.54479646915043
  H   -1.64748805845849      3.18042146716679      3.26610350202292
  H   4.58870447207459     -0.27008923818724      6.83333973812292
  H   -0.66399546701678      0.40094298310215      4.18589122124396
  H   -1.80538887119834      1.46114002359449      5.02110424278963
  H   1.70479058626057      2.53606890325886     -0.09804510693590
  H   2.92392633908128      2.88392841238244     -1.31451139569463
  H   3.35102902817878      4.46684013166873      0.47290801125846
  H   4.64231681340259      3.26546858180100      0.56790427065083
  H   0.09519514510989      1.95336026411663      6.25036016703259
  H   0.27179356913691      3.18829377661963      4.99900492851521
  H   1.41715964197050     -1.15734866059521      2.88898833200142
