54
Coordinates from ORCA-job BAHYIS-CH3OH_2_5_tpss_d4_lanl2dz_631gpol_Fe2.opt
  Fe  2.21418153037135      1.19563506285436      2.75062124914080
  O   1.18379441062654     -0.67604170408891      2.54168666637612
  S   0.13030961124087      2.35610343787636      1.90021105108640
  C   -1.16027070096824      2.37312912761791      3.24799582822246
  C   -0.77289004461866      1.56672312041328      4.49004544363845
  C   0.43664283959048      2.12761696983425      5.27024011886953
  N   1.69807672393092      1.49730774350535      4.84057576157498
  C   2.53881286011944      1.04321923041034      5.73293574689080
  C   3.75117837315711      0.38903476179974      5.17871519511931
  N   3.77804882132082      0.35841083201428      3.82689738335968
  C   4.83678716383375     -0.15612170524119      3.16239209396254
  C   4.77011745981450      0.02218429960136      1.68872526013854
  N   3.72371624098396      0.66914898061370      1.25553411829000
  C   3.60258724118683      1.07818594289139     -0.15419448430955
  C   2.92693005631860      2.45492012145519     -0.26519051605050
  C   3.61102206395477      3.55414982329185      0.56700093218697
  S   3.31148388382298      3.49444226283401      2.40437859036809
  C   1.81741212871921      4.56821299595203      2.56663303616293
  C   0.61611217498713      4.13548015901532      1.72150193155904
  C   2.34157175334818      1.15705517895529      7.22492536346901
  C   4.81197824054431     -0.14748855348101      5.92886024075926
  C   5.89880355792555     -0.71551030191113      5.25377079457790
  C   5.92210652394505     -0.71751945030536      3.85381779972601
  C   5.90853253022677     -0.48717880914415      0.84275631683236
  H   -0.26645187408267      4.74138254652814      1.96217894959896
  H   0.81227939139841      4.27599539828342      0.65284300017570
  H   6.72735260198492     -1.14066627887940      5.81485657721542
  H   6.22261483149126     -1.47845415340898      1.19121298481107
  H   5.64037570588156     -0.57564365514231     -0.21236717551905
  H   6.77931704789468      0.18045735242165      0.92749729407427
  H   6.77198447719976     -1.13399585246812      3.32090814173939
  H   1.46063164403477      0.58276884510787      7.54520621310759
  H   3.19980749587655      0.78047100260218      7.78411494762352
  H   2.18453792255874      2.20288774188416      7.51837474678210
  H   2.99404650249700      0.33147230790340     -0.68424261648671
  H   4.58681677914302      1.11698761806739     -0.63567144349611
  H   2.10736275043609      5.59466235677802      2.30531129154120
  H   1.58418780711242      4.55219574063637      3.63831969131096
  H   -2.06974610242837      1.97367473166934      2.78680337904477
  H   -1.33786404708569      3.42709122299000      3.49454555968863
  H   4.80449503028589     -0.12535602137548      7.01396323707667
  H   -0.58618349452700      0.51737194549268      4.22550742866822
  H   -1.64699772615041      1.57471316125788      5.15616014609658
  H   1.86232939376435      2.36611174288463     -0.00692158206101
  H   2.96202437534048      2.75223137382773     -1.32280328594571
  H   3.30178174358178      4.55408641871839      0.23912308303494
  H   4.70194783607870      3.50931547935796      0.45781984658312
  H   0.27536056994150      1.98712036424545      6.34359075197836
  H   0.53062206847938      3.21050784893283      5.09759883014486
  C   0.50048383117188     -1.21559875037033      1.36424652165120
  H   0.05353714682446     -0.35657607391629      0.85931704573522
  H   -0.28002308890569     -1.91266031636646      1.68425030039269
  H   1.21909285920245     -1.71482198057724      0.70510642907634
  H   1.57576107661734     -1.41528164384926      3.04874378440542
