49
Coordinates from ORCA-job BAHYIS-oxo_2_5_tpss_d4_lanl2dz_631gpol_Fe2.opt
  Fe  2.01742155180712      1.12026801858202      2.64281415496773
  O   1.14411064672829     -0.26660678318835      2.55676760316776
  S   0.10157731093616      2.37132686286804      1.83503168254214
  C   -1.28157511907884      2.14614623615250      3.06941080139520
  C   -0.90160844282574      1.42074732463533      4.36152110488577
  C   0.25180602275000      2.07292628945365      5.15286794441824
  N   1.54829969796512      1.49999742319877      4.74731386983252
  C   2.37721390618901      1.01310506827984      5.62448245761013
  C   3.55759448406674      0.31029805393117      5.04953815240526
  N   3.59025761648595      0.31680445026694      3.70501508066996
  C   4.56314185904691     -0.29581962355570      3.00833100522304
  C   4.45068760500598     -0.12272860351714      1.53370506736127
  N   3.42742701731359      0.58040961781894      1.15013962179942
  C   3.18210916603369      0.99432644696428     -0.23657276139820
  C   2.76127633334045      2.48151597662761     -0.29559151345918
  C   3.56177022644508      3.40391225693336      0.63757219914110
  S   3.22456526417907      3.22553225179127      2.46612922996037
  C   1.85344466866459      4.43203075409791      2.75452329221847
  C   0.58805418239331      4.16188155543338      1.93840896288499
  C   2.19712307211557      1.07480280276573      7.12027467509005
  C   4.56066170919025     -0.35243641936387      5.77555097327551
  C   5.57807055681111     -1.01042412473352      5.07156506441045
  C   5.59095949967969     -0.98414096472611      3.67184249404348
  C   5.49898447618162     -0.74733243032614      0.65572098996050
  H   -0.26310846766519      4.72487322294270      2.34166420774092
  H   0.71607261430206      4.47795706052938      0.89652348283943
  H   6.35765989547302     -1.54018240147683      5.61377875689281
  H   5.51830245683905     -1.83116835556105      0.83968524355305
  H   5.31750264172643     -0.59517160973362     -0.40939028290788
  H   6.49430560181597     -0.35346031971950      0.90476600323356
  H   6.37650745072464     -1.48804634040264      3.11610160696185
  H   1.53231718952394      0.26441998431527      7.45602322758133
  H   3.15137041865514      0.95965187494081      7.64099567558892
  H   1.76262049528993      2.02828344613722      7.43652158859682
  H   2.37716056678355      0.36598584809320     -0.64016267891286
  H   4.07870368087159      0.84210135331366     -0.84687403244594
  H   2.24145931451869      5.43810121451094      2.54654566432631
  H   1.66921852325317      4.36403695750249      3.83267974033383
  H   -2.04328292947044      1.58789045192338      2.51414989111750
  H   -1.66775213627444      3.15532373991755      3.25897330003120
  H   4.55193964117068     -0.37205133337765      6.86089720879608
  H   -0.65896603678612      0.37223364417961      4.15277643014765
  H   -1.80134834877135      1.42614007434872      4.99290600680777
  H   1.68400082141344      2.57760237044157     -0.11221331030719
  H   2.92424131996214      2.82775223277447     -1.32549718277463
  H   3.37882001631551      4.46050975278943      0.40639093858122
  H   4.64162800419940      3.23501256439179      0.54439409614290
  H   0.08648586608874      1.92690913761266      6.22456743280189
  H   0.28086808861558      3.15705298921645      4.96993483286730
