50
Coordinates from ORCA-job BAHYIS-OH_2_2_tpss_d4_lanl2dz_631gpol_Fe2.opt
  Fe  2.14656470983550      1.13941720372146      2.80453586277086
  O   1.10305254304712     -0.31309412302019      2.70508755389066
  S   0.33087290517316      2.19057623994814      1.79718706068573
  C   -1.13722253156863      1.85100917036034      2.88602181705713
  C   -0.83416199687952      1.37437611631591      4.31316743010359
  C   0.29450329816264      2.14324341284618      5.02964822466290
  N   1.60376358473484      1.56329651279383      4.67735948840363
  C   2.39748412944089      1.07201638834251      5.59899556591331
  C   3.56416174918725      0.34363390911268      5.05791299748435
  N   3.55075424696592      0.30920195544887      3.70187375176860
  C   4.50973754793481     -0.31227588055456      2.97632330113079
  C   4.30367310434722     -0.11271043306962      1.53236741246439
  N   3.24942579545355      0.62655779413824      1.26494266016839
  C   2.90215037289748      1.07886726007578     -0.08693117545247
  C   2.89992824618326      2.63397027949659     -0.17382177920764
  C   3.78645334287586      3.34298068649403      0.85897827930002
  S   3.26174160510897      3.20504899650325      2.63628108796054
  C   1.86820236206495      4.40622516264399      2.76598915231852
  C   0.60585089455880      4.02591842952335      1.97901599064517
  C   2.16477446946279      1.16590648366538      7.08274915847843
  C   4.59556239458019     -0.29813815339361      5.75472873943906
  C   5.59391604241360     -0.96760194049896      5.02590695963308
  C   5.56324591445329     -0.97626644269484      3.62673084302028
  C   5.28184057331731     -0.70615210160380      0.55855210934336
  H   -0.28469794148900      4.45927850837026      2.44931185530259
  H   0.65146613185631      4.41823834563973      0.95758072104924
  H   6.39783942624243     -1.47427456801336      5.55406413874082
  H   5.38709010191503     -1.78116045658792      0.75960003886681
  H   4.98805124480611     -0.58782596440387     -0.48529735133967
  H   6.27317694719472     -0.24972941973473      0.69506325247630
  H   6.34053240638057     -1.47846360097109      3.05725702146814
  H   1.38293189110245      0.45676375197813      7.39335708481670
  H   3.07308429042511      0.92542546246659      7.64120290850006
  H   1.84789218671231      2.17280913531954      7.37684577874461
  H   1.89955600462191      0.69312215994267     -0.30806729080111
  H   3.59987519580446      0.66677747250454     -0.82017511297613
  H   2.24429091083524      5.38932115241170      2.45463515386919
  H   1.67949407341177      4.45782595837731      3.84383940774154
  H   -1.70354768080892      1.09003202897188      2.33891403029289
  H   -1.72397717549439      2.77769400723877      2.87475725709675
  H   4.62951213300883     -0.28783096919009      6.84011723701120
  H   -0.58743309809712      0.30792444222487      4.30137211157759
  H   -1.75581724717235      1.49779121904796      4.89799711042276
  H   1.87266158825277      3.00777034618240     -0.12109573112305
  H   3.27070836366656      2.91338805617802     -1.16920519803421
  H   3.84682357583548      4.41869548856466      0.65265440671245
  H   4.81300914433039      2.95559555970044      0.85385996139619
  H   0.14136584578630      2.09921761969415      6.11157310620645
  H   0.29469633346331      3.20089455218527      4.73582672824909
  H   1.61846004365844     -1.15078721469282      2.68803888175005
