52
Coordinates from ORCA-job AQUNOP-OH_1_5_tpss_d4_lanl2dz_631gpol_Mn2.opt
  Mn  1.61859832634638     15.01687714174085      3.09394274056717
  I   3.27599555008074     15.23018254153575      0.98063582728309
  P   0.32991263749772     17.20844802817593      2.31389176539294
  P   3.06953888283333     16.63831049226726      4.24468606798537
  P   2.97902493107137     12.75130346104363      3.88454628811130
  P   0.39578874422979     13.31959139120518      1.80631396926324
  O   0.42461038599282     14.99126461002538      4.48805418689370
  C   2.65701231974063     18.29740954327149      3.52563503915791
  H   3.10943678378839     19.08561473370316      4.14548186802155
  H   3.12898230229258     18.34160329256743      2.53342890629922
  C   1.12734947221987     18.49508448997550      3.41398481958077
  H   0.90416753058534     19.50274212422148      3.03486888517081
  H   0.65825365193934     18.41324598448715      4.40511762068065
  C   -1.45616887817921     17.39369182126914      2.74847035711235
  H   -1.77648943531047     18.44433846624738      2.72803546340387
  H   -1.62239214018014     16.97877754485277      3.75020036401667
  H   -2.07295244420071     16.82876208267120      2.03707700858147
  C   0.44840881790645     17.97873604089529      0.63972693018489
  H   -0.00596466123410     18.97880251416660      0.62440409559786
  H   -0.06221023529033     17.34473469695166     -0.09656715306182
  H   1.50074508761082     18.04913764231870      0.33829817586276
  C   2.64308274273343     16.78791530094308      6.02956422044640
  H   3.11018606507481     17.67044967862908      6.48676909527285
  H   2.98832265060927     15.89353752844450      6.56503708726009
  H   1.55352197229756     16.84879901721419      6.13527461329879
  C   4.90332324109501     16.54300173626851      4.21251786287892
  H   5.34609646020015     17.41362511110345      4.71445754482672
  H   5.24899506605996     16.49983635202846      3.17342653425329
  H   5.23489927741514     15.63223829138207      4.72685265931804
  C   1.44363205388836     11.79570595571008      1.67728969170403
  H   0.85460494024235     10.97718959769688      1.23808780891459
  H   2.26259475928022     12.02907137958888      0.98225580053262
  C   2.00034968791723     11.38267586293963      3.05878592009769
  H   2.63115740078984     10.48742820190073      2.95954140311495
  H   1.17405109110875     11.11563985209495      3.73430988846119
  C   4.68896455627559     12.45271456249461      3.24858466679760
  H   5.01746506358183     11.42650649386489      3.46373918109789
  H   5.39009686117188     13.15602979311416      3.71589709033079
  H   4.71699412701294     12.62913894862981      2.16692578982255
  C   3.09880621672953     12.09968036759336      5.61870779046144
  H   3.46677712741077     11.06435067213217      5.63507030999845
  H   2.11565655387323     12.12873065253716      6.10746744808489
  H   3.78937940603904     12.72054762501702      6.20463526388231
  C   -0.15632681629274     13.67356617924359      0.09072275627158
  H   -0.63621085642783     12.79057128627361     -0.35224541386758
  H   0.70563036043351     13.97050867423115     -0.51753663074083
  H   -0.87872631776697     14.49961140134653      0.10077743826968
  C   -1.12621596037978     12.78136462380430      2.68569343017487
  H   -1.61770444998667     11.94349064713442      2.17304255397879
  H   -1.82167660144213     13.62709801667051      2.74804635636973
  H   -0.87635420514716     12.49147956066432      3.71260783511251
  H   0.75850989646212     14.50357798570986      5.26966077746907
