50
Coordinates from ORCA-job AQUNOP_1_4_tpss_d4_lanl2dz_631gpol_Mn2.opt
  Mn  1.88156702441008     15.01399026164496      2.81630525817303
  I   3.46999516485046     15.28373372183910      0.71382387062060
  P   0.50779612138655     16.91045125767729      2.46993737344492
  P   3.07876145993564     16.47967644737529      4.20507778257816
  P   2.84943470093886     13.03400701702681      3.68879821141436
  P   0.42538679088077     13.50590969403618      1.76573443316424
  C   2.70015737926672     18.20564956452899      3.61475710222770
  H   3.10985971935314     18.95603378979536      4.30583606132629
  H   3.19722858595638     18.33083956243016      2.64190510217465
  C   1.17214872345621     18.35001627236980      3.46671564795480
  H   0.90198348438433     19.30109622632433      2.98712978857433
  H   0.68850152867560     18.33440977954130      4.45436879300490
  C   -1.29449537362218     16.91675482225719      2.87535072135727
  H   -1.70487947920974     17.93355472638790      2.80926089508039
  H   -1.46225343133387     16.52948520832242      3.88809956781143
  H   -1.83849010756970     16.27922053506918      2.16661427000714
  C   0.54153263347843     17.57052484621040      0.75005910878009
  H   -0.11760232041356     18.44557706750936      0.66542069772307
  H   0.22205527907781     16.80060232070566      0.03910189851301
  H   1.56795452911826     17.85226324062916      0.49033991248861
  C   2.54518439975282     16.53258056533198      5.97566056188605
  H   2.99314327953919     17.38877391871671      6.49834703677209
  H   2.84987876110698     15.61142064999355      6.48625770690053
  H   1.45259514390063     16.60518175361491      6.04219174235109
  C   4.91353120421037     16.42773807704407      4.31308771606647
  H   5.29824894887373     17.31639496861541      4.83136933634844
  H   5.33584737364970     16.38197698413533      3.30204029224223
  H   5.23278483887513     15.53602754286913      4.86740966692902
  C   1.33834963942849     11.88825482447344      1.62869793672768
  H   0.67248638469972     11.09044954848841      1.27010303171183
  H   2.13365309840836     12.03038466679095      0.88303965662723
  C   1.94134819878368     11.54338021779158      3.00510469104450
  H   2.62238788519382     10.68350105133189      2.94000005623000
  H   1.14609605454588     11.27386579350250      3.71541408974045
  C   4.58769099798531     12.71948030090604      3.16361705249951
  H   4.95729817712630     11.78912111319244      3.61647895536061
  H   5.23324148565860     13.55281884342868      3.46217528716627
  H   4.63151747002685     12.64405548100781      2.07166637380962
  C   2.90953929316532     12.68198298206380      5.50216946225411
  H   3.22733871860548     11.64649400164610      5.68551016158115
  H   1.92418886888564     12.83797181946467      5.95871857356523
  H   3.62747668492397     13.35352209141356      5.99006284869703
  C   -0.21763249293399     13.81092488242720      0.07008161888668
  H   -0.70285223798007     12.91033252435209     -0.32972987128843
  H   0.61310079331394     14.10004372862840     -0.58481157886953
  H   -0.95323561344388     14.62522123023267      0.08532063476356
  C   -1.08697812854999     13.03753745057741      2.72313680679488
  H   -1.60730546506834     12.19266788572866      2.25157853469965
  H   -1.77607396713674     13.88854524876677      2.77827253690429
  H   -0.81439220856716     12.76065349178217      3.74919258517866
