45
Coordinates from ORCA-job AQELUE-CH3OH_0_4_tpss_d4_lanl2dz_631gpol_Mn2.opt
  Mn  2.14281349529545      6.55383369772731      3.31258977201749
  Br  1.97240721608319      8.03698615251432      5.29804144588247
  Br  3.14632329614592      8.17359438878750      1.63422482251941
  O   0.81710252404339      5.05046367405942      4.94854447977202
  N   2.00410203186413      5.03721399351545      2.22716981240405
  N   2.92485940287435      2.97848049008981      1.46561052108437
  N   0.72021637675095      3.67604112695102      0.76967162878860
  N   3.88243195562655      5.59097589134970      3.75681746023595
  N   2.69982580110812      0.74347028682417     -0.08647174411207
  N   0.23458304119001      6.76565830189250      2.56404453157311
  C   3.00109794288769      4.08270000180039      2.18706857798717
  C   4.11145985409469      4.43609541640090      3.04422737616178
  C   5.30996531653402      3.71929759393778      3.15047571857304
  H   5.42487598900862      2.81527580285261      2.55792523069321
  C   6.30181559229701      4.20181494526629      3.99990494065240
  H   7.24572047872889      3.67071029390917      4.10243442806723
  C   6.07201703810125      5.39313186044885      4.71625858584424
  H   6.82703399691225      5.80355432542961      5.38178613675532
  C   4.85814506210401      6.05943988439690      4.57026682521958
  H   4.62716377356793      6.98173743878557      5.09575882038734
  C   1.78078887718967      2.80611347663427      0.75135615643434
  C   1.65053800191776      1.60149247499638     -0.08484097232603
  C   0.47749714120354      1.38041064717302     -0.83750865731773
  H   -0.32982154922511      2.10608083193231     -0.79438521762005
  C   0.39099132315821      0.22804903710415     -1.61938432452127
  H   -0.50153093817892      0.03046691925065     -2.21129719959592
  C   1.46941029534991     -0.66565881205549     -1.62912711793206
  H   1.44607219792063     -1.57645858145607     -2.22442401510736
  C   2.59177186325050     -0.35494223023933     -0.84590286572450
  H   3.45232095473234     -1.02618798577980     -0.82765938237352
  C   0.86363822498448      4.75696260433811      1.51217856509235
  C   -0.14849492203918      5.78848730813724      1.68301117889051
  C   -1.37812139675783      5.82876657730898      1.01863305763128
  H   -1.62471380504484      5.02750393019084      0.32733061255590
  C   -2.23487506037915      6.90108871515700      1.26518894206575
  H   -3.19857409184382      6.96170702031940      0.76389819675620
  C   -1.83375864428291      7.90653401826857      2.16108370373313
  H   -2.47242033032436      8.76001917493070      2.37322289427865
  C   -0.59201849799613      7.80740923709496      2.78974183308810
  H   -0.22520685835643      8.55434819496095      3.48829045934445
  C   1.60040334727725      4.05769282482031      5.63368154983081
  H   2.55403105540074      4.47244133964220      5.99137579945383
  H   1.04296723789276      3.63246862157857      6.48098685654106
  H   1.80335104995829      3.26583899445703      4.90611618043700
  H   0.75167433897399      5.83489009429536      5.54113439587817
