39
Coordinates from ORCA-job AQELUE_0_4_tpss_d4_lanl2dz_631gpol_Mn2.opt
  Mn  1.98848603644106      6.28670014471266      3.45230192013915
  Br  1.66451344775363      7.42843555803916      5.58914615976527
  Br  3.04971240640039      7.95345517630998      1.91119563201360
  N   1.82043838317440      4.75194160216725      2.38954791789001
  N   2.78785361979665      2.76267922063556      1.51445775513178
  N   0.59868634398266      3.48671588213651      0.79376120824342
  N   3.69451525703726      5.29918400646396      3.91178878735249
  N   2.60898697307362      0.60699368423022     -0.14433730252999
  N   0.10882636694118      6.49708914066082      2.72963046072737
  C   2.83331951913954      3.82141691231107      2.29898440728998
  C   3.93564137285040      4.16037202593739      3.17866265644771
  C   5.13101001974620      3.44230403145096      3.28724755940533
  H   5.25529645452723      2.55185945034986      2.67651822997624
  C   6.10845942971741      3.90505241088220      4.16588219094030
  H   7.05030444868983      3.37140923191423      4.27281667527011
  C   5.86299701460254      5.07418150106621      4.90897486735637
  H   6.60278499333107      5.46580638113024      5.60218953509139
  C   4.65152776439895      5.74523881737051      4.75857816902534
  H   4.40781063099218      6.64915726306760      5.30848187354471
  C   1.65468823200305      2.62145444664323      0.76676249611972
  C   1.55453485199116      1.45731571649078     -0.13130188536758
  C   0.40410312887857      1.26711035609137     -0.92520292638802
  H   -0.40875481323241      1.98573004286079     -0.87001881537161
  C   0.34679835755644      0.15292013065139     -1.76331186761643
  H   -0.52765714769546     -0.02116064946982     -2.38842499247841
  C   1.43120105585606     -0.73315035887685     -1.78551950036738
  H   1.42991381458779     -1.61466078194900     -2.42371094570009
  C   2.52974753671924     -0.45469740048805     -0.95800073366466
  H   3.39394213395059     -1.12115008116756     -0.94778166032679
  C   0.71217114632093      4.52699400503023      1.60262360831761
  C   -0.28088746059191      5.56402406973999      1.79369572677843
  C   -1.50462540380450      5.65622859920796      1.12049198371110
  H   -1.75524198722444      4.88975695800124      0.39209990754606
  C   -2.34712269019409      6.72791812423418      1.40515999678309
  H   -3.30403942562623      6.82647854550267      0.89738598232230
  C   -1.94137206187411      7.68418186427524      2.35489961923459
  H   -2.57078789044812      8.53525330825011      2.60093904284420
  C   -0.71277680982088      7.53991388758642      2.99420696314871
  H   -0.35060504994796      8.24414677654917      3.73707929739446
