40
Coordinates from ORCA-job AQELUE-oxo_0_4_tpss_d4_lanl2dz_631gpol_Mn2.opt
  Mn  1.87583162423410      6.16136274378812      3.67510259492369
  Br  2.11900876283176      8.19126791967862      5.01695663683466
  Br  2.93864427058403      7.31100365080251      1.57347940480827
  O   1.16543091444991      5.28784423073318      4.91741283826091
  N   1.77881283918572      4.68732252721023      2.45193647788161
  N   2.77142025429472      2.75063357562511      1.54817211175686
  N   0.58292994694777      3.47624225245257      0.82907450312718
  N   3.67976111936721      5.29890397253346      3.96116347023099
  N   2.61082174516772      0.62631692890496     -0.13249352270793
  N   0.08928686131521      6.49607718532681      2.78219334871676
  C   2.79207922291529      3.80051886702150      2.36413889235713
  C   3.90739370651378      4.15844221809439      3.23990960890626
  C   5.10068851391160      3.44119796429942      3.32075027776374
  H   5.21472193663568      2.54747326316234      2.71287672984137
  C   6.09979559800904      3.91113498767035      4.17807348260650
  H   7.04512513016316      3.38039143162694      4.26633039628975
  C   5.86341338346296      5.07616100084469      4.91724685012730
  H   6.61437170386793      5.47532535455692      5.59420119083691
  C   4.64160087738493      5.74643476416983      4.78777588562592
  H   4.40540668538311      6.65597405509397      5.33224879452508
  C   1.64704364361845      2.62812291282386      0.79985587651591
  C   1.56069919317245      1.47748158103209     -0.13045894879824
  C   0.43026083725816      1.31629016185138     -0.95313462665780
  H   -0.37877101143743      2.03912948081255     -0.90128193397345
  C   0.38880143452094      0.22075100605676     -1.81926839659390
  H   -0.46895455039758      0.06544011452313     -2.47112553311165
  C   1.46921041504422     -0.66785177223296     -1.83188123574723
  H   1.48085082277571     -1.53395008585649     -2.49071411065363
  C   2.54921667173284     -0.41718257622701     -0.97009942354122
  H   3.40846297807265     -1.08907328183243     -0.95207822314055
  C   0.69264351413132      4.49741521585529      1.67699751032188
  C   -0.29994675379628      5.55691746835230      1.86545543548819
  C   -1.50842811414257      5.64043616182319      1.17461820039830
  H   -1.75685603269359      4.86590375627299      0.45417436660698
  C   -2.35142248153218      6.72473416901748      1.43511807485689
  H   -3.30099546315388      6.82240911235226      0.91367116824256
  C   -1.95121968494354      7.68158382326884      2.37480085512204
  H   -2.57731736453567      8.53968829849380      2.60566035299805
  C   -0.72418761436649      7.53715909593797      3.03241217662183
  H   -0.35923553595328      8.24956646407874      3.76652844233187
