40
Coordinates from ORCA-job AQELUE-oxo_0_2_tpss_d4_lanl2dz_631gpol_Mn2.opt
  Mn  1.85676378198742      6.10794721852945      3.71200549972448
  Br  2.17970402498813      8.24767152477426      4.86910132532278
  Br  2.93298543831026      7.14976427874064      1.51552027242754
  O   1.14955416443600      5.24541995581453      4.88299769275895
  N   1.78019120276249      4.68123861870025      2.44947881254844
  N   2.76824690353710      2.73982871218610      1.56792387514179
  N   0.57222578600765      3.46612023363755      0.84942353843722
  N   3.67658883687010      5.29697304888264      3.99622207363317
  N   2.62096775871200      0.64452653154857     -0.14911785147266
  N   0.07349332796709      6.49981976690630      2.80759514812685
  C   2.78968764131408      3.79288424062494      2.38321758367769
  C   3.90223738767496      4.15652425602158      3.26758412268664
  C   5.09896084846221      3.44383477822440      3.33695872323112
  H   5.21454653933912      2.55333738829233      2.72455106483208
  C   6.10361196610851      3.91503668889933      4.18857789409288
  H   7.05139647678506      3.38680592485327      4.26680586797566
  C   5.87094822938133      5.07724361148961      4.93248957490505
  H   6.62756758170750      5.47547984883238      5.60398884844197
  C   4.64428379564839      5.74328753082564      4.81353035873526
  H   4.40866041324223      6.65482783406322      5.35685554681910
  C   1.64371439197674      2.62595117586166      0.81670244675721
  C   1.56143433356728      1.48337347411196     -0.12577238279119
  C   0.42519789754447      1.32006752608085     -0.93996729200251
  H   -0.39109266354536      2.03316602047529     -0.87086993173548
  C   0.38755857362922      0.23562006619063     -1.82015250085569
  H   -0.47468794528929      0.07914093854683     -2.46591595627633
  C   1.47800549447106     -0.63988872042382     -1.85513151542801
  H   1.49345492867648     -1.49673163445292     -2.52588886430591
  C   2.56337862465110     -0.38815102984054     -1.00030738057279
  H   3.43081498853717     -1.04959104628921     -1.00052735733237
  C   0.68389498439111      4.49150651282063      1.69503531852780
  C   -0.30807108292142      5.55749133405672      1.88813841695476
  C   -1.50832841484328      5.64154301410066      1.18252550662268
  H   -1.75114276981333      4.86764917855290      0.45930836196809
  C   -2.35224815196552      6.72924377890640      1.43087145576894
  H   -3.29591221709697      6.82639958788439      0.89839362965524
  C   -1.96039557331048      7.68958174921321      2.36976239400447
  H   -2.58817061370874      8.54945366747718      2.58998245972341
  C   -0.73882412410873      7.54235946024729      3.04041479166033
  H   -0.37480276608319      8.25824295463272      3.77348842761127
