41
Coordinates from ORCA-job AQELUE-OH_0_3_tpss_d4_lanl2dz_631gpol_Mn2.opt
  Mn  1.88302757394021      6.13685610482911      3.64680101116557
  Br  2.09503274674122      8.13022965412957      5.05793409936441
  Br  2.91572279958049      7.38643842352045      1.69319030761950
  O   1.12666324099486      5.33179904404190      5.10082943412308
  N   1.74888631026535      4.64812486732174      2.52010798746499
  N   2.78159599253186      2.75444369642879      1.53103841427203
  N   0.59492878986670      3.48268251485818      0.81076680673994
  N   3.68256962782145      5.28003816517183      3.94581231842801
  N   2.59448100603811      0.59291877890513     -0.11354670859232
  N   0.08971110240812      6.47118621871604      2.77950647534167
  C   2.79491873313687      3.77639725075913      2.36802796845570
  C   3.91749634770859      4.14216595905122      3.21998860005603
  C   5.12372986739808      3.44177910313705      3.29681258490930
  H   5.24561261095163      2.54985280039410      2.68785109333467
  C   6.11866252395708      3.92533506257235      4.14766557744334
  H   7.07215214001915      3.40802697530342      4.22957396538435
  C   5.87207499838885      5.08823691773067      4.89286023863267
  H   6.62198038085711      5.49560461917364      5.56599143852633
  C   4.64374802506867      5.74222262635554      4.76973025435296
  H   4.39829215613506      6.64977540212114      5.31314370341579
  C   1.65175604568779      2.61867831495901      0.78137674820363
  C   1.56531486052637      1.47253765219306     -0.14225605939780
  C   0.45284593909215      1.32851124040778     -0.99621339811802
  H   -0.34071241376763      2.06963901123147     -0.97097633197960
  C   0.40924380467733      0.23025919829627     -1.85655399531085
  H   -0.43437853834753      0.09184990329071     -2.53052450892056
  C   1.46838166550404     -0.68516295469134     -1.83739689757789
  H   1.47661941749538     -1.55547567115594     -2.49073373996323
  C   2.52878386081637     -0.45322459744251     -0.94775902521603
  H   3.37095927325994     -1.14553170667409     -0.90260594528396
  C   0.68426550581118      4.48092762372699      1.67624682331373
  C   -0.29767036440910      5.54268138559333      1.84843059803633
  C   -1.50628439582311      5.64613319709332      1.15498387808969
  H   -1.75693119894596      4.88159413145547      0.42470123043147
  C   -2.34024979839052      6.73161915497225      1.42635249144145
  H   -3.28635007606727      6.84329600304431      0.90109512725747
  C   -1.94026867669899      7.67562492904638      2.38376497786779
  H   -2.56214604793458      8.53455709447327      2.62191211054673
  C   -0.71900134008325      7.51568931979737      3.04312884677663
  H   -0.35054796314017      8.21636029496472      3.78659578209994
  H   0.90103346692803      4.40573229089702      4.86114571726497
