45
Coordinates from ORCA-job AQELUE-CH3OH_0_2_tpss_d4_lanl2dz_631gpol_Mn2.opt
  Mn  2.02533398173152      6.37538485782974      3.45440064587176
  Br  1.95397593411387      8.07689543235872      5.31943966617709
  Br  3.07094763700152      7.89102378225548      1.82560448037231
  O   1.00824824485030      5.23929219363564      4.91129165911110
  N   1.94367727419851      4.94411737426085      2.28806644435407
  N   2.89256618594969      2.92021771711115      1.47939750807559
  N   0.67781497324510      3.60551525617963      0.79698453027352
  N   3.77885301513748      5.52707636294532      3.82221914190165
  N   2.69420684089608      0.72670065745265     -0.12658551805299
  N   0.23416040934523      6.68625897001752      2.64969138486607
  C   2.95114234334354      4.01794900254693      2.22148006669923
  C   4.05673318397394      4.39732305743729      3.08283704105718
  C   5.28560845845591      3.73342890984045      3.15143041700352
  H   5.42752410186137      2.84458083152604      2.54187992537442
  C   6.27869035820163      4.25095612268806      3.98140943795158
  H   7.24849670136096      3.76362949947629      4.05439221171223
  C   6.01063718989940      5.42511669387084      4.70812596594299
  H   6.76389645882222      5.86892606179574      5.35450163735135
  C   4.76137615134523      6.03409643743387      4.60641664281502
  H   4.50232252681198      6.94120332740478      5.14557426928962
  C   1.74731102219455      2.75811943459797      0.76406702120181
  C   1.63526293056597      1.57036944919593     -0.10691336238385
  C   0.46948433577829      1.35818368217330     -0.87118786852655
  H   -0.34562508333764      2.07378426600113     -0.81070639409602
  C   0.40103339132102      0.22814015946349     -1.68746931696964
  H   -0.48534911952880      0.03740502288545     -2.29065529507811
  C   1.49031855149232     -0.65134055437883     -1.71659724563299
  H   1.48156134597433     -1.54436469152819     -2.33871417568520
  C   2.60445703919651     -0.35090514898861     -0.91813695872640
  H   3.47307629506071     -1.01179034750458     -0.91427465258792
  C   0.81147357183411      4.67954770866895      1.56610492106930
  C   -0.17703704359084      5.72979745275811      1.74844721816856
  C   -1.38634280884271      5.82538052081399      1.05282471961922
  H   -1.65076717963787      5.03346673255197      0.35696823651141
  C   -2.19400905361961      6.94224593456518      1.26251785710491
  H   -3.13954810000135      7.04801910159731      0.73504355855851
  C   -1.75599962854391      7.93665142832315      2.15393490232476
  H   -2.34977572456855      8.82920585593555      2.33517509889704
  C   -0.54408842336377      7.77873169139370      2.82527682542885
  H   -0.16075971425727      8.51445110806776      3.52691961155625
  C   1.69656710038624      4.15884188639782      5.58863397762043
  H   2.61300515219760      4.51953535565045      6.07052141949254
  H   1.01947836833226      3.71584353545724      6.32850692075250
  H   1.94241398021735      3.41829952926790      4.82388181135619
  H   0.89752682419549      5.98868833856662      5.55632361187703
