41
Coordinates from ORCA-job AQELUE-OH_0_1_tpss_d4_lanl2dz_631gpol_Mn2.opt
  Mn  1.85477648443472      6.06352883222866      3.67195657379958
  Br  1.90994892218582      7.86415780583572      5.39749215641239
  Br  2.90792522836486      7.54763003107389      1.92852933931101
  O   1.10155956075278      4.96780414657592      4.89485394980508
  N   1.77671543727849      4.66070978564162      2.43834040771209
  N   2.76693839158312      2.71733483807902      1.52589308686911
  N   0.60715350328654      3.48095998295883      0.76270985581878
  N   3.70334815298574      5.26312324477952      3.92636730541935
  N   2.58876892347429      0.57869444399817     -0.14413707780688
  N   0.07702524896329      6.45899658241960      2.76311929531871
  C   2.78538704495877      3.75884500801650      2.35033711844929
  C   3.90922015710474      4.10951052897883      3.22100327255736
  C   5.10556854289071      3.39311725043392      3.28849725552452
  H   5.20744640287085      2.48698952214494      2.69699724345632
  C   6.12469364162087      3.88355555149003      4.10955884604219
  H   7.07060168791939      3.35188461190753      4.18865292396534
  C   5.91480419611336      5.07280782631721      4.82062593285238
  H   6.68720495605850      5.48708073590620      5.46373293210118
  C   4.69074358505995      5.74025274392920      4.70437307978050
  H   4.46520782537835      6.66768442759435      5.22474889742380
  C   1.65321227195281      2.60917250553228      0.75705261914518
  C   1.56028849958648      1.45647857578127     -0.16806499534055
  C   0.44201895693196      1.31438857774675     -1.01198544599533
  H   -0.34991369144422      2.05719558671713     -0.98145348045858
  C   0.38922886333750      0.21242387060108     -1.86852607691628
  H   -0.46047617120104      0.07230200459869     -2.53455329546712
  C   1.44723255231566     -0.70337128986735     -1.85370114692435
  H   1.44892608333918     -1.57623435362169     -2.50370217879313
  C   2.51642249090688     -0.47037263384220     -0.97433708825034
  H   3.35853027417867     -1.16288779345263     -0.93450990559982
  C   0.71021926956530      4.49215857230092      1.62119991201770
  C   -0.28409281801207      5.55113368087991      1.80545389339642
  C   -1.47699760671451      5.65836807635174      1.08806383877353
  H   -1.70840887328597      4.90953473587134      0.33542779882701
  C   -2.32639100666015      6.73247631159130      1.36699693928217
  H   -3.26228915807086      6.84837726292989      0.82449608729566
  C   -1.95311795207539      7.65880578718103      2.34977093835705
  H   -2.58548587034656      8.50987825952452      2.58973826641170
  C   -0.74240760443489      7.49105818175357      3.03023693793666
  H   -0.38943420114694      8.17815093473170      3.79540278641811
  H   1.05384779799286      5.48670524638070      5.73214120107202
