41
Coordinates from ORCA-job AQELUE-OH_0_5_tpss_d4_lanl2dz_631gpol_Mn2.opt
  Mn  1.89070746597487      6.39810785764303      3.86702282095069
  Br  2.08495935138015      8.40161375343214      5.29229353396961
  Br  2.93905473528266      7.48834951472532      1.84037946206430
  O   1.10455078223665      5.45202374606449      5.20731417457344
  N   1.75334231128201      4.71858516987405      2.56735812329143
  N   2.77643642075436      2.81605742259440      1.58385025093342
  N   0.59923696407113      3.54018567383575      0.86779814483534
  N   3.84074981725803      5.24016493674562      4.04173389185544
  N   2.60411385354314      0.66980559433463     -0.07216377820987
  N   -0.07575998615458      6.56612220992239      2.73179746535025
  C   2.77778244834150      3.85132288248384      2.42894789120273
  C   3.95717921946786      4.13526843180911      3.26807379254760
  C   5.11057470210115      3.34430654136798      3.23864451781910
  H   5.14225436244021      2.47093388822060      2.59249112923400
  C   6.18559745234086      3.72651933307852      4.04863018654296
  H   7.10365159199059      3.14242696846239      4.05358655468792
  C   6.06639875251953      4.87022663906016      4.84758277583487
  H   6.88411634389463      5.19761776441478      5.48538463263947
  C   4.87087748959421      5.60324183110122      4.81783096653227
  H   4.71756685730603      6.50419405061746      5.40900619462247
  C   1.65644690385051      2.69140486910610      0.83757378056568
  C   1.57221438505276      1.54221455917590     -0.09818451727913
  C   0.46041081421824      1.40498972293733     -0.94907270407389
  H   -0.33382714310073      2.14518973339705     -0.91722576978785
  C   0.41845474895013      0.31057338793562     -1.81717194558495
  H   -0.42462878804693      0.17331315465961     -2.49185376276356
  C   1.48016781524315     -0.59993375883312     -1.80144842692695
  H   1.49096501408787     -1.46622800032590     -2.46005686143459
  C   2.54231237445396     -0.37279305997631     -0.91113230734630
  H   3.38575369331400     -1.06325045223839     -0.87078420492509
  C   0.69698288053165      4.54399246537101      1.74742645390162
  C   -0.35666108993181      5.57162173666063      1.85731346340837
  C   -1.53448665581530      5.53786792711426      1.10318089534169
  H   -1.70634283347596      4.71696408648373      0.41248615898395
  C   -2.45262004313717      6.57989148102469      1.27069184924649
  H   -3.38013580934669      6.59116533777155      0.70178576001832
  C   -2.16144847165159      7.60675028536019      2.17665112996568
  H   -2.85105784145930      8.43346023097637      2.33011662054523
  C   -0.95655051122485      7.56242094771917      2.89280110175628
  H   -0.66783043318958      8.33125351106074      3.60720390528037
  H   1.08444005505259      4.50246762483174      4.96093664983115
