33
Coordinates from ORCA-job CIFPIQ-oxo_2_1_tpss_d4_lanl2dz_631gpol_Co3.opt
  Co  1.48116667124992      2.33651482776236     -0.30724408791105
  O   1.17286581553547      3.97995730538234     -0.39427561325957
  O   1.80578568975905      0.50084202256196     -0.09124922230991
  O   3.02916234567078     -1.23535732080248     -0.86116975369076
  N   0.63149980879834      2.06197273521022     -2.04727384249205
  N   -0.83437964886752      2.19401401228685     -3.66659880835795
  N   3.19470399126619      2.31578600368381     -1.32090837533299
  N   2.34162878433969      2.55615400918580      1.48238733124515
  N   -0.16952869320232      1.96267356322177      0.71889871681993
  C   -0.57163068574469      2.54849370060223     -2.39278370154344
  C   0.23077304420313      1.47725923821728     -4.16623393987893
  C   1.16393975613863      1.39966957472239     -3.15253096782508
  C   2.56373066625839      0.83920729632924     -3.22585485494291
  C   3.33428972629791      0.93982116424905     -1.90023536584575
  C   2.72662187132048     -0.05839686847467     -0.87848622937728
  C   1.43778564815875      1.95218657870103      2.52626468194386
  C   0.02209817295687      2.36337304122957      2.15576516885759
  H   -1.21863398460002      3.16834077255424     -1.78932865504607
  H   -1.68370840049824      2.43012562297404     -4.17892596698807
  H   0.24519451578450      1.09279157328368     -5.17759231821585
  H   3.12641776772868      1.37882189973479     -4.00241387377599
  H   2.54605448391757     -0.21593394527282     -3.52812850819456
  H   4.39078475571591      0.69975593669576     -2.05720505558291
  H   4.00183892170464      2.55999243169302     -0.73450050410127
  H   3.12211242393863      3.04048865308716     -2.04681455332874
  H   2.47782792514955      3.56263272395047      1.65148648545663
  H   3.26203781975078      2.10166781412189      1.52312815216631
  H   1.56780576558957      0.86678939261531      2.47384541895329
  H   -1.00501774085868      2.40927353853089      0.32613251508894
  H   -0.11736370807008      3.44806599948817      2.21462839365063
  H   -0.72737559096617      1.86751197358226      2.78461691649516
  H   -0.27036320171721      0.94172019414202      0.62181977274131
  H   1.72417528329146      2.30718453475031      3.52328064458235
