38
Coordinates from ORCA-job CIFPIQ-CH3OH_2_5_tpss_d4_lanl2dz_631gpol_Co3.opt
  Co  1.60943689984433      2.22651326646405     -0.21746058132206
  O   1.44849582585199      4.31677709400798     -0.25152428336802
  O   1.83861504067653      0.29134980951688     -0.08671945453242
  O   2.55715246162150     -1.52382577004511     -1.21645826364376
  N   0.82880585453045      2.15709501371319     -2.17768573157774
  N   -0.74773849463505      2.04738112735531     -3.72453367212628
  N   3.53228969915455      1.93021125267520     -1.23575827827729
  N   2.43798883992772      2.28495021759077      1.80776592903085
  N   -0.20085512681858      1.89977805014195      0.92453668184795
  C   -0.41590256248647      2.54346103388764     -2.51305074028867
  C   0.31625495473727      1.30761838322589     -4.19992662787643
  C   1.30116446271282      1.38147345999756     -3.22923109946879
  C   2.68383501240188      0.78708536904782     -3.28940507309720
  C   3.39464798170686      0.62292353836020     -1.93334879503345
  C   2.54563419109173     -0.31089571772648     -1.00621954956475
  C   1.44871357869843      1.61011030177281      2.71544576043721
  C   0.05320250059854      2.12970914166562      2.38360938841132
  H   -1.06689900877135      3.17108360830945     -1.92005577321342
  H   -1.63171569019758      2.19583158562393     -4.20891934447157
  H   0.28431797863168      0.80525716523723     -5.15775306883188
  H   3.32941497583776      1.41219280687593     -3.92877042587117
  H   2.63946614834388     -0.19670729074480     -3.77151429010651
  H   4.36712473132201      0.14614061860404     -2.09782962682235
  H   4.33194425872055      1.90532247497488     -0.59395320863889
  H   3.73521903690574      2.66913918306068     -1.91850110591719
  H   2.66178765828327      3.21781429759894      2.17477035544383
  H   3.31974161866907      1.76201351469719      1.84340308429256
  H   1.51508269317710      0.53540478076266      2.51417166316594
  H   -1.04565015566390      2.40482266107113      0.63784852622497
  H   -0.01706983290183      3.21001087196307      2.56566889283627
  H   -0.70121833392940      1.63250184881624      3.00557951193134
  H   -0.39486912514544      0.90276885429801      0.76616302085369
  H   1.68910575506858      1.78613666931291      3.77087178344310
  C   1.86698398762982      5.23358870539497     -1.32010522217917
  H   1.88701561242948      4.63175630119472     -2.22995349996318
  H   1.13019546131241      6.03695307515564     -1.41432759286336
  H   2.85816749379692      5.64026386219822     -1.09439497329103
  H   1.34884361686669      4.82440883394358      0.57902568442762
