32
Coordinates from ORCA-job CIFPIQ_2_1_tpss_d4_lanl2dz_631gpol_Co3.opt
  Co  1.49267158597935      2.24351831586474     -0.31450540142442
  O   1.82267930457825      0.45887629266041     -0.06162018478556
  O   2.92662121456228     -1.27079334541329     -0.89191966886898
  N   0.63865360926806      2.05332165145093     -2.03584241081589
  N   -0.85176316836866      2.15859819519377     -3.64889093701357
  N   3.19702028815813      2.29502777566670     -1.28681247968779
  N   2.31883725685547      2.57481077031807      1.45054066964887
  N   -0.17596905340713      1.97677836619966      0.71387588815983
  C   -0.59786148304881      2.47571069796214     -2.36547285335027
  C   0.24225266599418      1.50486381067936     -4.17738317335973
  C   1.18001275160722      1.43871936667642     -3.17266855098219
  C   2.58281066658616      0.88849628172886     -3.25295360616114
  C   3.32666932203088      0.91986442317095     -1.90813792274423
  C   2.70739925096642     -0.07714390577180     -0.92313187354694
  C   1.43191697397902      1.98712052758602      2.52356531726401
  C   0.00951106277429      2.37581253966701      2.15685471196512
  H   -1.28982526536568      3.01979363417866     -1.73940426161092
  H   -1.71359543831151      2.37253091183214     -4.14899532650765
  H   0.26388892794279      1.15535374540044     -5.20068843242809
  H   3.16369985838754      1.46130888924761     -3.99074456908824
  H   2.56725974712598     -0.15119076633821     -3.60435062351097
  H   4.38082737353883      0.66969896630878     -2.06574101535487
  H   4.01177311901750      2.48900254912207     -0.69149230743046
  H   3.20117121786788      3.01869532197745     -2.01904299366434
  H   2.44929870064189      3.58371941710102      1.62120634292369
  H   3.25121492849925      2.14944535332625      1.52985912663872
  H   1.57188455072622      0.90187205758454      2.48859019648219
  H   -1.03634113572012      2.39706102165515      0.34472191529112
  H   -0.14299233270735      3.45935514141837      2.22426236406356
  H   -0.72949324045235      1.87581997150336      2.79350370172039
  H   -0.30115022365743      0.95610553246083      0.64589402533537
  H   1.72201696395141      2.35924648958155      3.51242433284342
