33
Coordinates from ORCA-job CIFPIQ-oxo_2_3_tpss_d4_lanl2dz_631gpol_Co3.opt
  Co  1.48619057117468      2.35249172504015     -0.31035950183362
  O   1.20651199858639      3.99913191828206     -0.39320404600807
  O   1.79898375119502      0.52680765261888     -0.08759503748645
  O   2.95817576919832     -1.23664191946862     -0.87785190383924
  N   0.63931263664270      2.07487411992985     -2.05444279577055
  N   -0.84268458792862      2.16557561923765     -3.66059004688498
  N   3.20382644575156      2.32086236360464     -1.32032409622424
  N   2.34467239917548      2.55557726119905      1.48852863469963
  N   -0.17080439797696      1.97397557186984      0.71762434998529
  C   -0.57291006865546      2.54194183264718     -2.39513987808140
  C   0.22600113398702      1.45253305059082     -4.15939769685865
  C   1.16917796841272      1.40000625505499     -3.15522581439521
  C   2.57600380558956      0.85729872174148     -3.23360058814772
  C   3.33264114842945      0.94216800457049     -1.89968318333340
  C   2.70678637131428     -0.05194579891897     -0.89326252461018
  C   1.43636990199079      1.94622835741261      2.52552661190639
  C   0.02158268668673      2.36324907680452      2.15736546312609
  H   -1.22188076483103      3.16362988823070     -1.79576693258312
  H   -1.69876701385033      2.38552109791126     -4.16880581155960
  H   0.23693121237717      1.05674142057139     -5.16637865754959
  H   3.13663754114090      1.41355737067580     -3.99958933730776
  H   2.56914914886722     -0.19418515136336     -3.54842294891872
  H   4.38899132913162      0.69481409172746     -2.04819261083673
  H   4.00730619121042      2.55523394875319     -0.72490154039122
  H   3.14676401737829      3.04770272579125     -2.04551988734578
  H   2.48993263997919      3.55898817180235      1.66853010437322
  H   3.26073203622756      2.09184835985651      1.52354877593550
  H   1.56349156441447      0.86101351459139      2.46494739180278
  H   -1.00904341397679      2.41820868891098      0.32795730650801
  H   -0.11743650925479      3.44748476278503      2.22653132958567
  H   -0.72827892009613      1.86269775797827      2.78219378825348
  H   -0.26493194530647      0.95308278198519      0.61247888962085
  H   1.72286535301501      2.29292675757589      3.52552219416933
