32
Coordinates from ORCA-job CIFPIQ_2_5_tpss_d4_lanl2dz_631gpol_Co3.opt
  Co  1.47270078553813      1.72163399500821     -0.17265842300279
  O   1.84473815143192     -0.13504662349396     -0.36075724278561
  O   2.76911069174196     -1.70309859724721     -1.70891968574408
  N   0.73280054704680      2.12084473656758     -2.03875076961108
  N   -0.75133918043803      2.46866645425474     -3.64113190970145
  N   3.43495075819152      1.75716313844955     -1.17129282389909
  N   2.05418285898634      3.06962030735878      1.35307617398877
  N   -0.15944049124947      1.35311566121889      1.16077649589904
  C   -0.48220647239239      2.62983756878270     -2.32894407551840
  C   0.31348575512553      1.82293997761913     -4.23109888042083
  C   1.24564398102352      1.60774521391322     -3.22418136501289
  C   2.60634665559777      0.98492700548127     -3.39065954935050
  C   3.36502394681534      0.60379775766915     -2.10812614661520
  C   2.61415121344286     -0.54250647659898     -1.33804968638679
  C   1.34744865242037      2.63966567761041      2.61688351459726
  C   -0.11635077049002      2.35050966375862      2.28368726771230
  H   -1.15722840730878      3.10584418166005     -1.63040250137291
  H   -1.60077363463676      2.77118559394929     -4.11738757975417
  H   0.32761396415993      1.58017238866861     -5.28586655059309
  H   3.25449127367103      1.69046484600559     -3.93927039905758
  H   2.52789537970998      0.09702472623394     -4.03064304404294
  H   4.35647059466185      0.22850200494494     -2.38510588537626
  H   4.21983057907819      1.62577470741980     -0.52246747425252
  H   3.63284240205167      2.61788370683025     -1.69618805046868
  H   1.77930231891684      4.03469046616984      1.12326530651784
  H   3.06512500203398      3.11591798745315      1.52637169043789
  H   1.85253680620973      1.73524035775091      2.97760872792908
  H   -1.10289865240893      1.30837189286889      0.75995327554681
  H   -0.62192505167784      3.26099083185068      1.93879680331479
  H   -0.64528453347646      1.98067493288560      3.16986367864956
  H   0.01375775083787      0.40648906452846      1.52667921118723
  H   1.42809712538543      3.41235685042777      3.39043989718635
