33
Coordinates from ORCA-job CIFPIQ-oxo_2_5_tpss_d4_lanl2dz_631gpol_Co3.opt
  Co  1.48165838656046      2.40516772201345     -0.24483848013076
  O   1.21926721814179      4.00814161178420     -0.31442476844183
  O   1.80889619272006      0.51720513402548     -0.12041778329712
  O   2.97958219357832     -1.21801219117750     -0.97711053546874
  N   0.58561578929494      2.07817436480720     -2.21607228114720
  N   -0.86997290429678      2.07841802762808     -3.89622027455211
  N   3.27578262277742      2.30735347464409     -1.35995461992858
  N   2.40184250071027      2.55886104085920      1.68388486566251
  N   -0.22838554630628      2.01556476668235      0.88907068387920
  C   -0.62973302685121      2.48038187600280     -2.61374306055260
  C   0.22732926646926      1.40648770816554     -4.34819886523360
  C   1.15116416006289      1.41695572074533     -3.27786728329505
  C   2.55228751305880      0.89184826424503     -3.29981974376159
  C   3.32594059211135      0.95050666828527     -1.97544219903390
  C   2.66283251605090     -0.02559129614857     -0.92868873032796
  C   1.45289601989399      1.96798866728668      2.67484854391265
  C   0.03674494433984      2.41274688867518      2.30776153685346
  H   -1.33112562687495      3.06370585698236     -2.03190775753010
  H   -1.72050037624406      2.26283600727738     -4.43020060698528
  H   0.28664568084937      0.98281115952883     -5.34363602436549
  H   3.12998703190388      1.48073059975343     -4.03703144695646
  H   2.56630550795470     -0.13754318128948     -3.68456875212322
  H   4.35472187596772      0.62170064458464     -2.15365224348736
  H   4.10548429975907      2.47318822412777     -0.77907434048543
  H   3.26957830277691      3.04678056444990     -2.07318734196039
  H   2.56746558591381      3.55256486501495      1.88321113631364
  H   3.30709358661767      2.08072578242288      1.73844646165536
  H   1.54904786024868      0.87849838071649      2.60874313546153
  H   -1.06649401024191      2.49177768488098      0.54242645264944
  H   -0.06172081648672      3.50253566409464      2.36444505384573
  H   -0.69766495803980      1.95442280912401      2.98130800227814
  H   -0.38940768069631      1.00297837238015      0.81834051428115
  H   1.69913529827583      2.28348811742720      3.69607075227202
