43
Coordinates from ORCA-job BPYCXC-oxo_0_2_tpss_d4_lanl2dz_631gpol_Co2.opt
  Co  -0.13978510534376      0.06291746200983     -0.28426216915605
  Br  -0.13477973837938      0.05590483939355      2.20655426255183
  Br  -0.00464948116740      0.02152736155956     -2.76718359598790
  N   0.67686748229105      1.83389584876884     -0.30924717909042
  C   1.82188994684601      2.01177927734550      0.38877540600104
  C   2.47951463430595      3.24241074273029      0.40178606499853
  C   1.94752646365296      4.31665125401799     -0.32423108357706
  C   0.76896548849320      4.11311461472798     -1.06123391237341
  C   0.16933393359467      2.85980698918256     -1.03681072239446
  C   2.61770190951187      5.64585530272321     -0.32658705909304
  O   2.18540781518124      6.61911954475818     -0.92991346429811
  H   2.18702906729539      1.13139215500156      0.90421864774298
  H   3.39706074244618      3.35330104386736      0.97737471588610
  H   0.35003002943580      4.92467799788762     -1.65058753399742
  H   -0.71666063879640      2.63558104087691     -1.62029666521377
  H   3.55679021846023      5.70269843261773      0.26845740640987
  N   -2.01272135875946      0.87360932549120     -0.33893347770590
  N   -0.87614356613719     -1.74293832462781     -0.25996024130056
  O   1.45809008821981     -0.63159647223931     -0.23414131824533
  C   -2.37077421235719      1.84753485716147      0.53328327411438
  C   -2.92747591480154      0.44908840332575     -1.25051190451560
  C   -1.99761406278784     -2.05338659690717      0.42931379785552
  C   -0.20449670010475     -2.71805470827054     -0.92192427714167
  C   -3.63849913150474      2.42791457697717      0.52162303084946
  H   -1.60997312369280      2.13288752100912      1.25412020743896
  C   -4.21451637227095      0.97195358822364     -1.31473712003630
  H   -2.57850939071335     -0.31531723086344     -1.93874377951041
  C   -2.51089999522233     -3.34823194017659      0.45304161886429
  H   -2.45801577500819     -1.24208621518228      0.98199593321702
  C   -0.66225138455912     -4.03259883933625     -0.93941492539576
  H   0.70782427855128     -2.39548882606004     -1.40908234982294
  C   -4.58513390042159      1.98527104403431     -0.41468370523910
  H   -3.88099743822952      3.21131209626538      1.23813966539586
  H   -4.93074739724357      0.61314128321192     -2.04983058465248
  C   -1.83851265787148     -4.36049843837424     -0.24777497678171
  H   -3.41484770596666     -3.56089240369752      1.02146821688658
  H   -0.12037154910427     -4.80357439049652     -1.48116735008436
  C   -5.95379510498415      2.57042603179221     -0.45683599260332
  C   -2.35680068766955     -5.75667825883432     -0.25028120484374
  O   -6.81665796156147      2.20936096201684     -1.24597783579351
  H   -6.14892551401151      3.37234477243098      0.29019042590072
  O   -1.81849764439506     -6.67749521069952     -0.84914068121118
  H   -3.28777858522033     -5.91504051364309      0.34025243595238
