44
Coordinates from ORCA-job BPYCXC-OH_0_5_tpss_d4_lanl2dz_631gpol_Co2.opt
  Co  0.11454816395150     -0.02562374068273     -0.37496389361920
  Br  -0.14151125420847      0.09681790210443      2.34666392120701
  Br  0.03433371689690      0.03674679183756     -2.92961819605411
  N   0.83242937933658      2.01306821421798     -0.37247612458361
  C   1.81489905471022      2.32881193600366      0.49706615111867
  C   2.37903263425174      3.60526957707839      0.54403362314551
  C   1.89970760707097      4.59204764143470     -0.32961482629356
  C   0.87644477154185      4.25831742456828     -1.23210180878230
  C   0.37867635087733      2.95848923503496     -1.22795067872633
  C   2.46284090021518      5.97152633064026     -0.30399128580932
  O   2.06794943482722      6.87595270035874     -1.02705165272139
  H   2.12745915074348      1.53041139701328      1.16233217553687
  H   3.17481910683610      3.82364788232054      1.25457002017451
  H   0.49652180489035      5.00875122588379     -1.92103060587173
  H   -0.38774329511113      2.63025913478144     -1.92492425794927
  H   3.28266655986286      6.13352024283231      0.43169343341483
  N   -1.92370559274147      0.85643805031157     -0.34811662044676
  N   -0.90141792022428     -1.94854859837937     -0.39311734368732
  O   1.71841507848669     -0.79081541154980      0.00138750798181
  C   -2.23016961583140      1.88640371993310      0.46925124221858
  C   -2.87124567974767      0.38863240762145     -1.19585755050689
  C   -1.86762963924710     -2.24911448076045      0.49970153205498
  C   -0.44570603061174     -2.91188375846759     -1.22758431917536
  C   -3.49049746740236      2.48755617928085      0.46730046763782
  H   -1.44044225191784      2.19635944277824      1.14778571817611
  C   -4.15826920793304      0.91737924198898     -1.24234453318106
  H   -2.55461965411898     -0.41779692846005     -1.85140618062961
  C   -2.43125586575406     -3.52413452937046      0.57797376969826
  H   -2.15678687897188     -1.44261850778527      1.16872689339892
  C   -0.94834556097529     -4.21041796280199     -1.20359693290505
  H   0.32901966986959     -2.59991133960709     -1.92263103708239
  C   -4.47799861647136      1.99230072589236     -0.39661416851653
  H   -3.69770798499813      3.31972685103540      1.13848269212568
  H   -4.90865957976835      0.52198737409220     -1.92250949892943
  C   -1.96578196066164     -4.52511499315199     -0.28729047767766
  H   -3.21320871875972     -3.73174982120932      1.30703970737839
  H   -0.57172472850303     -4.97578867475232     -1.87763625690347
  C   -5.84329719219210      2.59054579543301     -0.41861535193252
  C   -2.53582193496282     -5.90129382674809     -0.23398891501933
  O   -6.74335041760551      2.18935163005717     -1.14320942223824
  H   -5.99777196604259      3.44192164717471      0.28183856622379
  O   -2.17266763479646     -6.81223801937120     -0.96499855717701
  H   -3.33157440706806     -6.05322226695327      0.53004001472347
  H   1.74041767225801     -1.02198784165841      0.96033306020423
