44
Coordinates from ORCA-job BPYCXC-OH_0_1_tpss_d4_lanl2dz_631gpol_Co2.opt
  Co  -0.14542020581791      0.09833694810815     -0.25576660082208
  Br  -0.17352762079726      0.12589580490340      2.24735792144420
  Br  -0.04089386189433      0.06500654570980     -2.74685211326294
  N   0.67900627077848      1.85975980052461     -0.31278554636272
  C   1.82862720799179      2.04876347857409      0.37381848640775
  C   2.48887257471330      3.27750251700457      0.36796560060884
  C   1.95273896649183      4.34456307125136     -0.36557115854419
  C   0.76935794676009      4.13181097826392     -1.09205158477082
  C   0.16941549802706      2.87944051247004     -1.04979929611498
  C   2.62270902176808      5.67300115865416     -0.38618368497833
  O   2.18645269031553      6.64112252016418     -0.99526174604393
  H   2.20110945098059      1.17237336683990      0.88832951919295
  H   3.41144768675307      3.39278579610717      0.93460115907808
  H   0.34595938924150      4.93637348649420     -1.68782444393849
  H   -0.71805291312104      2.64937594679387     -1.62844686039255
  H   3.56628240666573      5.73515378620203      0.20145468008322
  N   -1.98954533264431      0.89344320437819     -0.32800085971560
  N   -0.85824269288404     -1.70428616421060     -0.23894719667810
  O   1.55331702049308     -0.64442806248926     -0.21098312636470
  C   -2.34167599969740      1.89819525796161      0.51147731388967
  C   -2.91534704325011      0.42450439132827     -1.20641439030584
  C   -1.96767678332314     -2.04110527898350      0.45929400721199
  C   -0.19322368020437     -2.65742780082886     -0.94409253555051
  C   -3.61508081302713      2.46546396515721      0.49898564131225
  H   -1.57291691229726      2.22020655674914      1.20716711298490
  C   -4.20929778402518      0.93090968889998     -1.26484699810646
  H   -2.56932703178039     -0.35758771701825     -1.87515706545769
  C   -2.47410055183660     -3.33889764805102      0.45302650671820
  H   -2.42250982078311     -1.24778637167754      1.04236912527110
  C   -0.64467438587009     -3.97347218795571     -0.98861989860196
  H   0.70908785369323     -2.30977011007005     -1.43478181651547
  C   -4.57433452870921      1.97546784457252     -0.39975000998999
  H   -3.85161898395402      3.27449236212674      1.18839818502212
  H   -4.93381643491965      0.53603337829226     -1.97278618520793
  C   -1.80788916462435     -4.32734240782650     -0.28698130456878
  H   -3.36869553740129     -3.57256596398617      1.02801921475791
  H   -0.10860917738418     -4.72603325401624     -1.56128505426486
  C   -5.95013922025730      2.54421359860866     -0.43880026965295
  C   -2.31828958659893     -5.72572744755082     -0.31946186268907
  O   -6.82396545191101      2.14204555135890     -1.19501905189494
  H   -6.13965357879304      3.37431590882089      0.27829785543456
  O   -1.77982585853312     -6.62868965381618     -0.94508235262005
  H   -3.24290437055171     -5.90410289881133      0.27538449576458
  H   1.58814134221820     -1.04135445902780      0.68858618823361
