48
Coordinates from ORCA-job BPYCXC-CH3OH_0_2_tpss_d4_lanl2dz_631gpol_Co2.opt
  Co  -0.23107847364020      0.09014635083695     -0.40392429108092
  Br  0.04385728128279     -0.16995862045383      2.32954582393618
  Br  -0.03563323904747      0.05301503192524     -3.07234581309382
  N   0.54512939129540      1.86631366970697     -0.38332271453065
  C   1.51542527728865      2.21676693561544      0.49767098213982
  C   2.09147380900545      3.48595260018465      0.50191676841664
  C   1.64767743231998      4.44644936529722     -0.41864106829207
  C   0.63268511311490      4.08522718360928     -1.32049594332312
  C   0.11417695611933      2.79701185980012     -1.28102797100065
  C   2.22843815204435      5.81517703131747     -0.43873300682051
  O   1.86337625891736      6.69371128336460     -1.20937255530891
  H   1.78297291240565      1.45707589770440      1.22571229374436
  H   2.86961208114403      3.71924822955379      1.22710267995304
  H   0.27053489601328      4.80888891326946     -2.04636291688462
  H   -0.63669414948362      2.45494525618473     -1.98474234271024
  H   3.03372980275968      5.99766903449690      0.30845634426818
  N   -2.01074225160599      0.88438764591844     -0.35713986609207
  N   -1.00722964141433     -1.67922849541447     -0.39840207173951
  O   1.57978542622460     -0.86981167634238     -0.27959814078275
  C   -2.34083891430259      1.74865416299551      0.63501048355761
  C   -2.92695148921924      0.58705529615154     -1.31771265460362
  C   -2.02128958748374     -1.98645895123213      0.44887107295281
  C   -0.50285877693705     -2.65270942601174     -1.20199454878045
  C   -3.59678076180395      2.34880931066176      0.69498769236688
  H   -1.57325820248591      1.90920295546516      1.38789382885962
  C   -4.20057948926032      1.14461533627095     -1.31143367696664
  H   -2.57590180881936     -0.08501647858774     -2.09689021438181
  C   -2.57592892370264     -3.26226876213070      0.50533601351740
  H   -2.35226461515467     -1.18701170161842      1.10161824149627
  C   -1.00218620753183     -3.95060548160651     -1.18746159356521
  H   0.29344057663317     -2.34081375487901     -1.86688997806703
  C   -4.55005919149290      2.04601089670935     -0.29047878268382
  H   -3.82805998712238      3.03808440345361      1.50576915184091
  H   -4.92370177602693      0.89908822064927     -2.08534354242877
  C   -2.06233442249514     -4.27049841258472     -0.32444041706099
  H   -3.38899629463322     -3.46549772927949      1.20034154862489
  H   -0.58669142034630     -4.71398030952592     -1.84033218511809
  C   -5.90381908450002      2.66153803149445     -0.25815893700075
  C   -2.62235743851794     -5.64761339695958     -0.28792110232606
  O   -6.77311209218866      2.42724072442684     -1.08775509039555
  H   -6.08280470589622      3.36498673137868      0.58621918637120
  O   -2.21243791796789     -6.56538447461585     -0.98680757490857
  H   -3.45856457677399     -5.79759893372914      0.43239781172306
  C   2.80149425663000     -0.47052953021931     -0.94762727281711
  H   2.51951389578939     -0.30720118333583     -1.99037533821009
  H   3.21089722228834      0.45262757736027     -0.51837638127976
  H   3.53191284586402     -1.28398645626676     -0.86068053664850
  H   1.68017185271420     -0.90183616100951      0.70837860513379
