38
Coordinates from ORCA-job CIDKEI-OH_1_1_tpss_d4_lanl2dz_631gpol_Mn2.opt
  Mn  4.91995372588285      2.63329939521704      9.58556063113176
  Cl  3.03710505216984      2.07230636032426     10.79028864610550
  O   5.65489298790679     -0.13758661956790      9.07072271703287
  H   5.10695994321478      0.29943057693187      8.34080668607138
  N   5.80789691182287      2.95847592914955     11.39048152119142
  N   6.45416175480591      3.59198938214079      8.78254362556375
  C   7.28502818841571      5.70773368719127      7.96179294554427
  H   7.12230061297649      6.76475471084893      7.76627078544971
  N   4.14349435109803      4.39883513345606      9.27367900945290
  O   2.84732898153182      4.80367546812473      9.54252434483958
  H   2.46192443587769      3.98319717671809      9.97189678720066
  N   4.46014605005405      6.64266034367304      8.62188071825235
  H   3.45684925216313      6.78304557093614      8.71674226847632
  H   4.92856746802985      7.25373059599391      7.96215972896378
  N   5.75543496087570      0.92429925461835      9.94160583621684
  C   6.36773870902279      0.68172782266808     11.07967494844436
  C   6.43387620080706      1.86972727103325     11.93204505109753
  C   5.74930306205985      4.10196488820583     12.09946661052292
  H   5.21246942345800      4.92287886302549     11.63304307348572
  C   6.32648813466742      4.22322751747444     13.36506582718644
  H   6.25119540872756      5.16372772726066     13.90382387024508
  C   7.05035996955962      1.92796084157871     13.18702512891202
  H   7.56737598900526      1.06047461237070     13.58959261048588
  N   6.93196806732091     -0.52140935149144     11.37973720055729
  H   6.64147879315683     -1.29451863430471     10.78364671751158
  H   7.06299608330561     -0.76375790528652     12.35648339793540
  C   6.25773491671579      4.91556532513017      8.49000130643091
  C   8.52294220704358      5.11950489801747      7.69251080014889
  H   9.33259693679939      5.71537684909153      7.27824833209390
  C   8.70344319480155      3.75456033198543      7.95733061038918
  H   9.64713921344137      3.25848383514311      7.74797930934779
  C   7.64924137335095      3.02605247219133      8.50834413749049
  H   7.73523590462834      1.96901408128806      8.74071570233133
  C   4.89797502250458      5.36320423843811      8.77478805977669
  C   6.99500394141283      3.12106648274360     13.91265818526018
  H   7.46298444134034      3.18679643655343     14.89197194878431
  O   4.47205781267694      1.85297572094221      8.00611326092472
  H   4.33807051736776      2.42932871018482      7.22610765914395
