36
Coordinates from ORCA-job CIDKEI_1_6_tpss_d4_lanl2dz_631gpol_Mn2.opt
  Mn  4.80759337229866      2.67522347491493      9.68126305813506
  Cl  2.75450358406513      1.69636833115604      8.95849969666234
  O   5.15360445812377     -0.47196463522636      9.49844840909748
  H   4.34439796498578     -0.18520462088936      9.00064518541257
  N   5.84300229346278      2.85384094651815     11.64366174233111
  N   6.46857349311769      3.79500103284091      8.71096974823394
  C   7.18767961493995      6.02017601866130      8.10867938580362
  H   6.94500410840402      7.06926583007104      7.95762788072983
  N   4.01546637684587      4.60563650613579      9.22422642196992
  O   2.65668603740927      4.95900628413458      9.21898689165662
  H   2.21303978914456      4.07282312909782      9.27302131755179
  N   4.27788920516964      6.62599576565803      8.04396430369665
  H   3.26174168749942      6.70980626951129      8.05168111444654
  H   4.74609390329583      7.03154621862562      7.23945606220715
  N   5.54432637282073      0.72063298023132     10.12929662077834
  C   6.14119074411176      0.50517268405116     11.27943379964873
  C   6.49626706174393      1.72550361783515     12.03880303241520
  C   6.07835970361837      4.00469124863597     12.30059760683736
  H   5.52862952520169      4.87324679110763     11.94308653703776
  C   6.95851684497319      4.08724088687879     13.38526878898322
  H   7.10139227752231      5.03377812989571     13.89980118489470
  C   7.41367094467382      1.73289362688770     13.09538954758154
  H   7.95585977053167      0.82843065714717     13.36064287120483
  N   6.45064925434454     -0.73421040444509     11.74356560767690
  H   6.03852011007964     -1.50240349089305     11.21466678136217
  H   6.51931142182638     -0.87805107596650     12.74626707460217
  C   6.18903719245748      5.10424792065253      8.45779434647880
  C   8.50693875306886      5.56554982476140      7.98866388057905
  H   9.29957765848877      6.25741031168555      7.71326692345706
  C   8.79099474262820      4.21803507139791      8.23491011757423
  H   9.80058121276393      3.82631615506543      8.14332580867674
  C   7.74167610273194      3.37063674024188      8.60734141329990
  H   7.90641800964529      2.31623634252048      8.82050344667910
  C   4.75768712361636      5.46598880341148      8.56519115408448
  C   7.64069764451907      2.93225142763419     13.78224465254920
  H   8.34462163986890      2.96158120005296     14.61080758566251
