38
Coordinates from ORCA-job CIDKEI-OH_1_5_tpss_d4_lanl2dz_631gpol_Mn2.opt
  Mn  4.89114434836923      2.58659554349150      9.64008646539767
  Cl  2.67345616606418      2.21816075135319     10.53197974094487
  O   6.11088578894481     -0.03252939165559      9.00969737698382
  H   5.50141902356004      0.36306236550394      8.30263233271265
  N   5.58417416346219      2.86644602179786     11.57074216386011
  N   6.71178056654638      3.67133606412043      8.71299606510189
  C   7.26614828546327      5.64360090472285      7.43864315861717
  H   6.99910412296193      6.63892454913458      7.09157437930502
  N   4.35073112000421      4.58214357985182      9.37134483831157
  O   3.19635086776460      5.16439408692953      9.91075249806095
  H   2.65514986959211      4.35507072743113     10.14870476905341
  N   4.83864811166339      6.78256200260910      8.74132502429599
  H   3.95135897836977      7.08389743024125      9.13355306699239
  H   5.54086364148189      7.48713444820395      8.55504938499318
  N   5.98197840494519      0.95374322855662      9.96526662526861
  C   6.52951858704381      0.72679089283430     11.13699151686554
  C   6.33425776430804      1.84401171837919     12.07861630937789
  C   5.27175900164910      3.91759943810278     12.34921234843498
  H   4.62941458076621      4.66827255535873     11.89676028167347
  C   5.72361686557088      4.01648043753936     13.66905305227625
  H   5.44923209842570      4.87936803275484     14.26926956956559
  C   6.82645557038093      1.88509563824885     13.38514304518093
  H   7.44072080056496      1.07742542464795     13.77498403694581
  N   7.23704107755459     -0.39463659409197     11.42179641734993
  H   7.16101275275265     -1.15414468785081     10.74802690131482
  H   7.36983105684866     -0.67470123188058     12.38753346967670
  C   6.43128306089147      4.93529243537700      8.31097207805373
  C   8.43536946144680      5.02350813934406      6.98126853845992
  H   9.10143217749682      5.54928233147349      6.30096182831165
  C   8.72136968666975      3.71781178424533      7.39227649063016
  H   9.61404293429862      3.20053758942897      7.05050367372824
  C   7.82099969174179      3.07426578878474      8.25010387501136
  H   7.97691737669594      2.04750715479574      8.57414522125540
  C   5.16049732733821      5.47295334310767      8.84085816171937
  C   6.51812056555153      2.99032908646610     14.18868061309895
  H   6.88896452413603      3.03973253846830     15.20974500445490
  O   4.56261218058137      1.84906122001162      8.00578406755931
  H   3.59405739809223      1.70739465216180      7.90829560915466
