40
Coordinates from ORCA-job AMGZCO-CH3OH_2_1_tpss_d4_lanl2dz_631gpol_Co3.opt
  Co  3.34245898876557      6.12475520575235     11.18477957720356
  O   3.81086289556872      7.43830137791159      9.72248181399330
  N   5.13290720991984      6.36164057215454     12.04406399755587
  N   2.73275881733361      4.82276916210963     12.49121303372371
  N   1.65655973603708      5.78227613002035     10.25479692435469
  N   2.30482085181739      7.48784655927250     12.24223965577957
  C   6.15700615347960      5.61483808368561     11.22141464156873
  C   5.45932192179770      4.61705024190087     10.28448915139932
  C   1.89687277764781      3.82299631893880     11.72165231274498
  C   0.91263972167513      4.61982242946019     10.87394151200470
  C   0.88852816830255      7.07069033037008     10.24655023535337
  C   0.90229416425148      7.62125133018673     11.67278493497201
  C   2.32813039740451      6.98293346849608     13.65906072173018
  C   1.99808379765967      5.48935502723277     13.63766513766582
  O   4.12312751806138      4.75916215828710     10.21196484022498
  O   6.06216811721253      3.78970103745651      9.63491339898768
  H   5.14792044710433      6.00205009752241     13.00507640230092
  H   5.40869689203148      7.34664097608070     12.12976612245484
  H   3.54603006850422      4.31204212680460     12.85529868318125
  H   1.92993165223163      5.52605283624510      9.29860701169432
  H   2.73878086947340      8.41777017547190     12.23207978133633
  H   6.86959595356450      5.09170970777322     11.86679400202716
  H   6.71907151620622      6.33463510215211     10.61751212471478
  H   1.38799580702665      3.14220857819944     12.41602014251568
  H   2.59252896158081      3.26243368159294     11.09257864993122
  H   0.09044294950207      5.02620568357465     11.47220361784196
  H   0.47418228435464      3.99553664472044     10.08824527042105
  H   -0.13740226832656      6.91221832049886      9.88882291458665
  H   1.40518949640832      7.74478718530738      9.55850287152298
  H   0.22132312442166      7.06120770346887     12.32236007883193
  H   0.58475256728683      8.66914487825661     11.69483633128499
  H   3.33429619597863      7.16644374646705     14.05334656980608
  H   1.61535044224472      7.53053389692819     14.29011468786914
  H   0.92662190785950      5.32674081359526     13.48590749750546
  H   2.27032428475127      5.00951297601220     14.58412511494630
  C   4.38888080021144      7.05988192187432      8.40803044467755
  H   4.08766094847832      7.82615656241224      7.68875547251382
  H   5.47754317434402      6.98893698831572      8.48013037941292
  H   3.96700614127813      6.08740231564889      8.15889446234816
  H   4.20013454654905      8.29639764784092      9.98693947701157
