36
Coordinates from ORCA-job AMGZCO-OH_2_2_tpss_d4_lanl2dz_631gpol_Co3.opt
  Co  3.39799739953021      6.20476442168127     11.06875255036254
  O   3.95561656585040      7.51562452691420      9.97972350499272
  N   5.20618867407687      6.45801521892067     11.89610006779219
  N   2.68772560908584      4.89662057596010     12.42670320581016
  N   1.70073755465944      5.90436906573834     10.12656585598529
  N   2.39108800564243      7.54452419743340     12.16119096601626
  C   6.20300145232566      5.84205292488524     10.94811006643723
  C   5.49123054719779      4.79506862172819     10.09836638316022
  C   1.83043854374956      3.94057834386992     11.63674624757784
  C   0.90641038646251      4.77310774079375     10.75427106186692
  C   0.98117723482270      7.22630895780388     10.13561815500969
  C   1.00969666181701      7.75532487952627     11.57096786414045
  C   2.38613740253970      7.06341997481379     13.58198385908015
  C   1.97230812967520      5.59122364178797     13.56500352726949
  O   4.14637761314693      4.77195178778339     10.21270740482897
  O   6.04162517535759      4.02557980159157      9.33266136416364
  H   5.32818317759821      6.07005663854589     12.83847898408403
  H   5.38278277411879      7.46768709178215     11.95651049533315
  H   3.48169880009499      4.36246524534985     12.79773323180728
  H   1.94722545435145      5.63412336692542      9.16567006184613
  H   2.91732751514024      8.42257442861511     12.08158663166448
  H   7.04001227547538      5.39023494555503     11.49097482917907
  H   6.59266924179394      6.62449863974552     10.28954726904466
  H   1.26023834223746      3.28829266820272     12.31092426650533
  H   2.51141841690582      3.33353828290237     11.03456974103564
  H   0.08945360034301      5.21997250433655     11.32996500865930
  H   0.46013026772173      4.15996289228457      9.96413217294813
  H   -0.04829835980215      7.10708450292402      9.77332486315615
  H   1.51497402319332      7.90042344846632      9.45997162642382
  H   0.29226169183045      7.22545410168764     12.20542653712922
  H   0.75526634414679      8.82020457687221     11.60049441640365
  H   3.40077500140758      7.19300137881156     13.97493375497240
  H   1.70547347428449      7.66603293277226     14.19824446804194
  H   0.89535722400972      5.48432981167705     13.40071134373789
  H   2.20818663903018      5.09965146430267     14.51515015611282
  H   3.67071714017859      7.40727639700883      9.04360805742042
