34
Coordinates from ORCA-job AMGZCO_2_1_tpss_d4_lanl2dz_631gpol_Co3.opt
  Co  3.37063272247365      6.19870548167202     11.09549088777504
  N   5.20562518508552      6.58422380322855     11.78084575088527
  N   2.78353919246500      4.94048172092670     12.41036158988731
  N   1.70850750260667      5.85182258007340     10.14842360124939
  N   2.34859082778526      7.57919967465909     12.12554351677540
  C   6.15343994975257      5.53997838980601     11.24214679658490
  C   5.54465309166142      4.95198823427681      9.96696165996776
  C   1.96508314692317      3.92148939497258     11.63730805060564
  C   0.96668941959634      4.69927260537527     10.78334814531980
  C   0.97112030195650      7.15828317701379     10.10889970618941
  C   0.95671977730826      7.72402821573974     11.53044079526570
  C   2.35309741676470      7.10601505651097     13.55353609182753
  C   2.02975973476518      5.61254045294979     13.54773142937362
  O   4.18854268161404      5.13806631783323      9.89585826111546
  O   6.14565450603777      4.36751265478866      9.10069723673253
  H   5.32090268066344      6.67658869581761     12.79705599632167
  H   5.48012080403676      7.50051638971551     11.39671468003963
  H   3.61540030728431      4.46658053822144     12.78457609102570
  H   2.00747002916016      5.57876759675284      9.20146596849992
  H   2.80611711465523      8.49849367419223     12.08937444658786
  H   6.26640262766795      4.74639760162559     11.99096168943551
  H   7.14219284071523      5.96395869659118     11.04099417152181
  H   1.47040243727523      3.23715956901380     12.33890148639827
  H   2.66947674935609      3.36418484982171     11.01305798755948
  H   0.14364956684835      5.10663094313744     11.37937845163321
  H   0.53210678441172      4.05939532246519     10.00797106928438
  H   -0.04646163890279      7.02587049609219      9.71665529049605
  H   1.51958296248271      7.81445283190005      9.42139784209186
  H   0.25670253288090      7.17724681976833     12.17118084204459
  H   0.65292283716244      8.77610735209907     11.53377557637633
  H   3.35170309190257      7.29952875422193     13.96107887548454
  H   1.62772727819351      7.66134354701221     14.16269162756294
  H   0.96277377801629      5.43696021930879     13.38172191238917
  H   2.30375175939374      5.13550834241598     14.49525247569178
