35
Coordinates from ORCA-job AMGZCO-oxo_2_3_tpss_d4_lanl2dz_631gpol_Co3.opt
  Co  3.43295453996928      6.25275816812854     11.06567873839672
  O   3.85097591370681      7.44327947205677      9.99440883323279
  N   5.26709896569031      6.44896734027239     11.91455435520209
  N   2.70874019408182      4.92146024401471     12.44894751924626
  N   1.74672637179337      5.87873509944217     10.11169802481835
  N   2.34607789417504      7.58050012109905     12.14618583301944
  C   6.24386415561565      5.86265420972941     10.93445653597934
  C   5.53693254636284      4.74076808389660     10.16935501239821
  C   1.89240778713493      3.93590779785118     11.64828622060462
  C   0.97115570082577      4.73642478931329     10.73231208266536
  C   1.01254850325743      7.19017824389519     10.07611997976386
  C   0.97865938961101      7.74080966187908     11.50382927851211
  C   2.31848317047965      7.09509333101392     13.56629762773064
  C   1.93942494165331      5.61456085840650     13.55128113502415
  O   4.18700415892252      4.78950696212134     10.22869410102765
  O   6.07495318969534      3.85915775599825      9.53631219215833
  H   5.34750964720317      5.97837146946929     12.82328850742431
  H   5.47457628921328      7.44176745337228     12.07084006468532
  H   3.49329344473767      4.39915063895709     12.85576526633950
  H   2.06566361072532      5.61445266767910      9.16951834821095
  H   2.83547335003017      8.48160877154765     12.09729925357261
  H   7.13860522517786      5.48642233138388     11.44060580256244
  H   6.53073313075141      6.64591802236772     10.22339991796490
  H   1.31906955068705      3.27976552723376     12.31602442633371
  H   2.60040347022028      3.33731792657804     11.07009873123967
  H   0.12777256200442      5.16950707789123     11.27935925099805
  H   0.56562474226675      4.10511174784469      9.93388296053120
  H   -0.00165753997866      7.04590207031544      9.68058973616982
  H   1.56814007856965      7.85114020877901      9.40269724586351
  H   0.25513487463660      7.20272141970852     12.12446883313291
  H   0.69602965881038      8.79906838531252     11.50567215468296
  H   3.32104218809452      7.25048455488838     13.98160979076925
  H   1.61001624571801      7.68516448176562     14.16368676352947
  H   0.87130767847137      5.48319494349317     13.35141764876379
  H   2.15065436968543      5.14276816229374     14.51725782744483
