54
Coordinates from ORCA-job BOFLIT-OH_0_2_tpss_d4_lanl2dz_631gpol_Mn3.opt
  Mn  4.11189035962587      9.76666241140726     12.01476255640761
  C   -1.61353732404037      7.69391366243119     10.46927469774090
  C   -0.61052187479186      6.60767800963178     10.83362891379935
  O   0.65500497918926      7.26419789315071     11.01763511431018
  C   1.72305660102266      6.49705051586699     11.36702445694630
  C   1.70240037424324      5.11749876897414     11.55886494491259
  C   2.87906112992769      4.42523147388481     11.92809488642637
  C   4.06782366268640      5.11361667162215     12.10470996428335
  C   4.11980908353505      6.52245144187804     11.93781045092203
  C   2.93886240058554      7.24476544324149     11.55966147453795
  O   2.88588564951287      8.53073994928666     11.34195928235108
  C   5.39037896622513      7.17836366356156     12.05773837922477
  N   5.56778786135159      8.46540153255829     11.98408929525521
  C   6.88928664951692      9.08975667887798     12.06250741684794
  C   6.74372961351644     10.30250296032463     13.00408249866201
  N   5.53543853784396     11.01063150991768     12.58350515043039
  C   5.48606034244380     12.30330361762565     12.45831717133988
  C   4.30746456357698     13.03040840674995     12.06985907716483
  C   4.41803728975837     14.42628757365098     11.84539105920589
  C   3.30081182919359     15.17773240998869     11.51805619729362
  C   2.03197947111802     14.56346982147608     11.42853105128907
  C   1.88843999487788     13.19594837684667     11.66051907160455
  C   3.03225402962597     12.38636971987526     11.97343842159849
  O   2.81879893554040     11.10541642328463     12.17605140441230
  O   0.71722707056143     12.50230561157588     11.60341775964173
  C   -0.46728185686557     13.22112401449585     11.22124651483253
  C   -1.60252832060028     12.20665578921440     11.19741370735397
  O   3.86555976891278      9.23146710319563     13.72815679573861
  N   4.59506690955346     10.35902407257222     10.20609562025971
  C   5.32825803139283     11.04448403461122      9.54894633028701
  S   6.34295038067485     11.97453555634917      8.68682859479963
  H   -2.60815813269338      7.25339619587131     10.32050057275019
  H   -1.67233322319471      8.44061165339518     11.27036561977401
  H   -1.30794335284274      8.19867619406853      9.54498632766045
  H   -0.89546107490752      6.09244130739330     11.76523918476318
  H   -0.52286843998513      5.85456309891332     10.03399349786632
  H   0.77791625939955      4.56103066898969     11.42509099640660
  H   2.84065797772475      3.34675149376503     12.06656931071524
  H   4.98038616558829      4.58348350392598     12.37581963165476
  H   6.26965974262782      6.53736846437811     12.19780211859291
  H   7.64862708305895      8.38282386331790     12.42601046427000
  H   7.16390162395739      9.43864863470866     11.05777738304660
  H   6.58666163812096      9.94784678154222     14.03135558482888
  H   7.62783478290471     10.95400621272183     12.96371877511281
  H   6.39054613646159     12.88731749525837     12.66353299512215
  H   5.39896287863749     14.89372842777813     11.91994194651939
  H   3.39066566957700     16.24525889879435     11.32871299602747
  H   1.16517369031913     15.16732954418708     11.17129773869694
  H   -0.66239614994950     14.02665242827875     11.94796570464972
  H   -0.31457597290646     13.67807765963070     10.23052605999447
  H   -2.53959389681855     12.69676766066076     10.90213298359119
  H   -1.73565344047261     11.76031250639781     12.19049761102368
  H   -1.38015863820140     11.40515986413916     10.48270241899588
  H   3.11279356387901      9.77860232375487     14.04363181805554
