58
Coordinates from ORCA-job BOFLIT-CH3OH_0_3_tpss_d4_lanl2dz_631gpol_Mn3.opt
  Mn  4.17342979737919      9.69638497369468     11.73022327153696
  C   -1.63079280250111      7.64220615862611     10.50914997582634
  C   -0.59547883704024      6.54074433500447     10.69457039279462
  O   0.66635740116686      7.19233449944377     10.90133334016571
  C   1.76144438684505      6.39834079542362     11.09245734182928
  C   1.76058443359235      5.00803458389336     11.12417125079954
  C   2.96434010650197      4.28963469853090     11.34026877636418
  C   4.15369839462922      4.96543819499038     11.52925133458456
  C   4.18667934076116      6.39020624079197     11.51280828467754
  C   2.98504622189985      7.13019528308413     11.27654689771582
  O   2.92630202060164      8.43534035712655     11.20006165386907
  C   5.43203886456594      7.06404939027906     11.69167848867255
  N   5.57439141157145      8.36534958495280     11.79777950709614
  C   6.91359392657867      8.96679323372875     11.80355401689716
  C   6.84374313552699     10.19802423498722     12.71300264796040
  N   5.58382197276802     10.88340789593189     12.39487384115675
  C   5.54853501490577     12.19302558724699     12.32730172308444
  C   4.38883624769600     12.97396951779528     12.02027967728463
  C   4.51802518728491     14.38927919007131     11.93610082763997
  C   3.41125823898722     15.18004369732636     11.69186221620828
  C   2.13214665960888     14.59107092088669     11.54110514523225
  C   1.97428766066227     13.21025185833410     11.62525523220376
  C   3.10916407231161     12.36436844533039     11.84712646741490
  O   2.89997799275562     11.06531830025241     11.90769246174838
  O   0.79335614907959     12.53324176992720     11.50775579695573
  C   -0.37946291178022     13.29686645963700     11.18526053159395
  C   -1.52294231559922     12.30059059469935     11.04588618496444
  O   3.40721124957476      9.23509883940914     13.64670464150202
  N   4.68082366299315     10.22612109286779      9.97766894342490
  C   5.39872692455578     10.92327228096552      9.31653352727024
  S   6.36273896885139     11.85804396975993      8.39742829063364
  H   -2.62420150880370      7.20348148967475     10.34700760820612
  H   -1.66831652970443      8.28347838954668     11.39837540297890
  H   -1.37270708844851      8.26475747169439      9.64402767094944
  H   -0.83336209765243      5.90845390325165     11.56618564732697
  H   -0.53490689781792      5.89150504928070      9.80597778308812
  H   0.83292153371045      4.45850293261400     10.98259412292768
  H   2.93783608007556      3.20184710773238     11.35474294752501
  H   5.08360403102039      4.42196307212204     11.69607359859565
  H   6.33660054597371      6.44648139288661     11.73458606860873
  H   7.67334896843568      8.24943103943803     12.14704787834037
  H   7.14788048130120      9.28241985741477     10.77763917415924
  H   6.82407384732781      9.88284956374972     13.76683292577986
  H   7.70450601919516     10.86315012531631     12.55998219087018
  H   6.47508558179497     12.74209899879172     12.52754906769819
  H   5.50533106316596     14.83369121465019     12.05622237757590
  H   3.51108763251538     16.26063109324448     11.61348780958203
  H   1.27252004561915     15.22888382085262     11.34944959014023
  H   -0.57907957398075     14.02845178567395     11.98586940732929
  H   -0.21138059033924     13.84963900971558     10.24721497814455
  H   -2.45273604202701     12.82598493895102     10.79103532309719
  H   -1.67268223505811     11.75685182285086     11.98694074357333
  H   -1.29749249799334     11.57350732202757     10.25666740587144
  C   4.09167862469770      9.64441877534505     14.85069144561619
  H   4.42394783364238     10.68805397289012     14.78398214658839
  H   3.42676196574853      9.50613929171452     15.71205813377537
  H   4.95443880521485      8.98077842399184     14.94525688370029
  H   2.62724942565171      9.82392114957835     13.50421897884209
