52
Coordinates from ORCA-job BOFLIT_0_3_tpss_d4_lanl2dz_631gpol_Mn3.opt
  Mn  4.08987550521523      9.81118066028604     11.86813408216628
  C   -1.72706717135954      7.65321627681553     10.96028985175262
  C   -0.67624059993928      6.55989660372970     11.09845336497134
  O   0.57768350278626      7.22273944218233     11.32995700740686
  C   1.68906410376887      6.44569910517981     11.46035492245095
  C   1.71926293853079      5.05317659830142     11.41501084000052
  C   2.94134530234231      4.35406412840521     11.56464959755999
  C   4.12468914475874      5.04318744609144     11.75920426196428
  C   4.12659703751670      6.46516108813606     11.80788528904779
  C   2.90350467274647      7.18511980686140     11.65103667500681
  O   2.82299526606301      8.49698169204439     11.68739178606870
  C   5.35403282593862      7.16298535626864     12.02757160020549
  N   5.47047120895278      8.46841506207802     12.12474938058828
  C   6.81003751501902      9.06657229872855     12.23710487974296
  C   6.65180272299876     10.33372640230562     13.07599707173883
  N   5.43862166474745     11.00832225457546     12.58361835946380
  C   5.39792730415841     12.32148092748620     12.54150182402961
  C   4.26451413730378     13.09097622965221     12.13769891016261
  C   4.37099787715903     14.50659821220159     12.04927453367921
  C   3.26683111337214     15.26616826510892     11.70977575076689
  C   2.01713182751864     14.64752091958567     11.46236636545616
  C   1.87971301222037     13.26432036374156     11.55341122201326
  C   3.01341448212666     12.45113538522691     11.88207810563142
  O   2.83775535277586     11.15023805766185     11.96064979676092
  O   0.73207044234206     12.56121832308817     11.33917609091121
  C   -0.43506261464069     13.29868278058611     10.94121524413631
  C   -1.54353759441505     12.27637502794661     10.72883183697868
  N   4.66004932700879     10.17097962858725     10.11344634753913
  C   5.30672397758502     10.95879839108917      9.47256841938256
  S   6.16376699960883     11.97318334502580      8.54263762724928
  H   -2.71396166870696      7.20655698901825     10.78133230305278
  H   -1.77192180366161      8.25652752918077     11.87504520197240
  H   -1.47926943563422      8.31403405760149     10.12103406385137
  H   -0.90058591849706      5.88901635752062     11.94375008117458
  H   -0.60646327252311      5.95046190042363     10.18299893943704
  H   0.80167922807684      4.49145898646122     11.25802337798473
  H   2.93782190296762      3.26668043977089     11.52325845096408
  H   5.06788079688925      4.51049529771804     11.87676399543963
  H   6.26245128412137      6.55877542234850     12.12830041492629
  H   7.52573860789277      8.36450091815771     12.68823205841741
  H   7.14723493532071      9.33027699649280     11.22483143561506
  H   6.50521496570789     10.06910953702345     14.13335507397778
  H   7.52780319728046     10.99144439367295     12.99225324555437
  H   6.29202436690131     12.87112873866208     12.85388384855092
  H   5.33476578964238     14.97617678535908     12.24150656765633
  H   3.34722851260906     16.34815629116254     11.62750102033606
  H   1.16417953014578     15.26432652541408     11.19002087190866
  H   -0.70040146878653     14.02360049213067     11.72813656041946
  H   -0.21974186123826     13.85650677231368     10.01568834122279
  H   -2.46858791403637     12.78173756206045     10.42149958272027
  H   -1.73410433408618     11.72251121083752     11.65610569407388
  H   -1.25455672459543     11.56069671769093      9.94983782591020
