53
Coordinates from ORCA-job AGUDOY-OH_1_3_tpss_d4_lanl2dz_631gpol_Co2.opt
  Co  10.99855515214659      1.13552397451751      6.11146409141709
  C   12.92108061464593      2.22868472435354      4.10368176833553
  O   11.67764630508950      1.97461679869625      4.40892251165049
  C   13.19576501418928      2.94718655051758      2.91077403549005
  H   12.34601193474292      3.26611408161744      2.30813827514258
  C   14.50270001769485      3.24463662159064      2.52898853395771
  O   14.80651931520569      3.93899750442880      1.40004466297631
  H   13.97940403700361      4.18643992173682      0.93812069620085
  C   15.61128795628174      2.82446778656958      3.31361207383587
  H   16.61697051322144      3.06846681602709      2.98403714745378
  C   15.37067969652895      2.11896874317672      4.47229514941045
  H   16.21191785377802      1.79094086227008      5.08276800330774
  C   14.05085077234655      1.80371966100429      4.91117382183059
  C   13.93170413583478      1.07385247103562      6.12200801157597
  H   14.86497280834395      0.77384097708555      6.61258624908319
  N   12.80104992706065      0.72910967104776      6.70846366214064
  N   12.88160669558574      0.00095094189830      7.89477996347943
  H   13.78710727938384     -0.06562845879163      8.36108000115857
  C   11.71813278631393     -0.19218070847709      8.60464484866579
  N   10.59478824110120     -0.06464936421535      7.95655044983845
  H   9.76941462733630     -0.05214204773440      8.55736414068497
  S   12.00182537316138     -0.58002942177326     10.32375986139228
  C   10.50219163925371     -1.60278605809685     10.68911834882937
  H   10.60407673045962     -1.80314810932006     11.76322041646340
  H   9.61224116662674     -0.97216889380551     10.56715417204673
  C   10.42350344944456     -2.89984652472227      9.88081047138230
  H   10.33193436977128     -2.68988511399256      8.80782236668957
  H   9.53978032885589     -3.47165921243886     10.19388559068243
  H   11.31347194277738     -3.51783967204060     10.04551997932002
  N   10.87298769987859     -0.60868609271058      5.03526358723227
  C   10.53796818727534     -0.51874416724906      3.72641703273483
  H   10.35441398520023      0.48707679865848      3.36231558673314
  C   10.47050174405508     -1.63981769984533      2.89951823761088
  H   10.19289788438376     -1.51888834853330      1.85544265409386
  C   10.76946250113530     -2.89891696001650      3.43323603370930
  H   10.72991621226233     -3.78996653225507      2.81031975558484
  C   11.12750598143907     -2.98776241196281      4.78297212254538
  H   11.37727112380632     -3.94126859625026      5.24171944035405
  C   11.16554792642202     -1.82283402140466      5.55080969367971
  H   11.42649747077309     -1.83999922256272      6.60289507351472
  N   9.16778719952467      1.56505005305701      5.55164369110680
  C   8.93245108517356      2.78763195158998      5.02916129667914
  H   9.80644187219173      3.42107572456935      4.91873670521388
  C   7.64554279926690      3.18365891822724      4.65990888486968
  H   7.48929242083600      4.17409331302471      4.24030812321538
  C   6.58007491158788      2.29501306258904      4.84254154879533
  H   5.56768255952231      2.58110699952890      4.56519000848614
  C   6.83516503761101      1.03151969950042      5.39190213658900
  H   6.03640694791648      0.31211867247143      5.55402317268871
  C   8.14516933869779      0.70160807920463      5.73559864916797
  H   8.41148927107481     -0.26093654080914      6.16478312938964
  O   10.90337971902517      2.63215910204080      7.09190345345872
  H   11.68510543675329      2.66346369697225      7.68535067810381
