53
Coordinates from ORCA-job AGUDOY-OH_1_5_tpss_d4_lanl2dz_631gpol_Co2.opt
  Co  11.06848341152496      1.38108488978304      6.33992617721277
  C   13.01729405504458      2.29992326164651      4.26605558967420
  O   11.78560393296806      2.20182158432735      4.70125077020715
  C   13.24272378557806      3.02733284349378      3.06930331415483
  H   12.37608343126336      3.47244941354319      2.58201961423033
  C   14.52514436442882      3.17326959403152      2.54059179716958
  O   14.78821926149220      3.86663883577225      1.40228307681067
  H   13.95672177221059      4.24248584615098      1.04713570827929
  C   15.64626791519696      2.58179004028563      3.18056153939134
  H   16.63282042692401      2.70758883097513      2.74382404273752
  C   15.44844810608964      1.86346513114558      4.34442885492826
  H   16.30488331861773      1.40693453032565      4.83989578550825
  C   14.16331917866541      1.70013769179552      4.92769274931993
  C   14.08508055814887      0.94186857549299      6.13412292601415
  H   15.02223063531779      0.52555654314394      6.52397125831496
  N   12.97229519909633      0.72775527971794      6.79513809854437
  N   13.01716239059777     -0.03563181087128      7.94030660730848
  H   13.91571250861252     -0.31757885081699      8.33420961018178
  C   11.84654778439068     -0.19494371256585      8.64607191792588
  N   10.72623270327075      0.09481891700687      8.04288048497307
  H   9.91580269917193      0.11599912155738      8.66248096373045
  S   12.11225105842426     -0.78552432634837     10.30552588839430
  C   10.47929620323609     -1.58159806680939     10.65495089350403
  H   10.58252215003390     -1.88206421770635     11.70540996852089
  H   9.70122266402096     -0.80773490157051     10.62496314169270
  C   10.16195695758834     -2.78201027538295      9.75957322682438
  H   10.07055190496913     -2.48072173846655      8.70876063243270
  H   9.20779942687506     -3.22649389042131     10.07254754067337
  H   10.94373072420300     -3.54595610008452      9.83977597772875
  N   10.93826672659454     -0.54501900713365      5.06434121874989
  C   10.69823952902898     -0.38821917420680      3.74488011692456
  H   10.55349468933413      0.63836561618359      3.41794291681700
  C   10.64923326965793     -1.46382827429196      2.85534892073703
  H   10.45030206218538     -1.28627631433167      1.80104725685596
  C   10.86171956032161     -2.75725916510339      3.34744328003230
  H   10.83156746232802     -3.61663788927523      2.68054727131881
  C   11.11596896324549     -2.92329143611777      4.71381072434577
  H   11.28887257373266     -3.90833084412171      5.14121828938677
  C   11.14408899767988     -1.79195269915146      5.53357136558303
  H   11.33016033530155     -1.86932698568982      6.60139471316617
  N   9.06784828320800      1.57778193669484      5.64296761148684
  C   8.71457040573110      2.70985579854319      4.99882643762118
  H   9.52135325191418      3.41317709144027      4.81189149478603
  C   7.40141747520892      2.95382359397251      4.59119914427777
  H   7.15792642206654      3.87869729139286      4.07401901013483
  C   6.41987496572571      1.99385990961204      4.86488335819902
  H   5.38719488645618      2.15733739651755      4.56353707052485
  C   6.78830692591617      0.81882708602878      5.53238558309937
  H   6.05841079261059      0.04634641711334      5.76223195846432
  C   8.12356226601758      0.64990808211916      5.90144206044864
  H   8.47348689029028     -0.24730669407897      6.40784078916366
  O   10.94632660175149      2.87893744375963      7.39203671293831
  H   11.55954813573065      3.59217778097346      7.11428453854909
