57
Coordinates from ORCA-job AGUDOY-CH3OH_1_2_tpss_d4_lanl2dz_631gpol_Co2.opt
  Co  11.11888933629903      1.06633785770263      6.16547059786181
  C   12.87147474931622      2.04681510341513      4.09891062560633
  O   11.66470828607992      2.06173154476049      4.64172001238750
  C   13.04129924788610      2.70582985349441      2.85858467741109
  H   12.16726607443390      3.17811218556961      2.41063156871591
  C   14.28376643774978      2.74089220633525      2.22449417208851
  O   14.48428474237700      3.35379640626818      1.02522318209685
  H   13.64514002272969      3.75759339753328      0.72340678579747
  C   15.42160823427520      2.12155533832083      2.80459115428891
  H   16.37417381357903      2.16715479852501      2.28486784777510
  C   15.27806750307979      1.48610610045256      4.01834148626188
  H   16.14391337347332      1.01375765175436      4.48209639304326
  C   14.02713676900395      1.42288566728728      4.70103101123416
  C   13.99082004887396      0.79067451772054      5.97215144503816
  H   14.92829118166075      0.40883023538090      6.38814861334944
  N   12.88631086042506      0.64847687997347      6.67761353871721
  N   12.94922071894274      0.02336731509119      7.92026686318239
  H   13.77757469820349     -0.50971025961425      8.18250596786619
  C   11.74457500990597     -0.14210620249446      8.54319527418693
  N   10.69500888012795      0.26247746850062      7.86176250673869
  H   9.81881857420617      0.31774810393036      8.38138958315805
  S   11.82737238958250     -0.78390869641087     10.19796058623921
  C   10.22646424404834     -1.71760662516051     10.27431527127881
  H   10.22797291850263     -2.10405166281312     11.30148423159673
  H   9.39907535194322     -0.99970215154459     10.20692627336327
  C   10.10809446181894     -2.84809308256038      9.25082101587834
  H   10.11120087774273     -2.45537336811318      8.22665471482249
  H   9.16268753058191     -3.38440691984504      9.40819338723179
  H   10.93307162163815     -3.56206571815086      9.35801710046078
  N   11.04642661460443     -0.76602332623496      4.94888949020061
  C   10.71670200094948     -0.65635424906850      3.64430020017347
  H   10.42375734301664      0.34017825372705      3.32179168538408
  C   10.76603218270496     -1.73836400503726      2.76190496097122
  H   10.49277378985999     -1.60053668042864      1.71830578311627
  C   11.17467159135985     -2.98678759709583      3.24619343445891
  H   11.22504339917698     -3.84911193704776      2.58444663048524
  C   11.52105343958638     -3.10453733940874      4.59817934815386
  H   11.84615601661156     -4.05410009818180      5.01747965110896
  C   11.44357738178575     -1.96996049169700      5.40884271309194
  H   11.70532904570488     -2.00888068527242      6.46476577559891
  N   9.26844477524850      1.44115715233514      5.71237122954066
  C   8.89404923119426      2.64430900472011      5.21849336003299
  H   9.69241525382479      3.36470514176604      5.08426784398134
  C   7.56861315415427      2.93149570154508      4.88971703709277
  H   7.31587315000827      3.91393867323639      4.49873255541092
  C   6.58991659538926      1.94824419019722      5.07283494248419
  H   5.54913357957793      2.14735916271707      4.82677169551465
  C   6.97959473344632      0.69978505521377      5.57439858564805
  H   6.25922090294758     -0.10074414116047      5.72391892558911
  C   8.32282141030061      0.48423270366594      5.87769869438226
  H   8.68574184609102     -0.47093953216609      6.24845953270646
  O   11.26312043708132      3.21633199294915      7.07742853547698
  C   12.06774781570280      3.45013137775943      8.25175142209434
  H   12.25089993950771      4.52394684541667      8.38751552080167
  H   11.48662254164749      3.07257865955856      9.09722325677847
  H   13.02388471843087      2.91171277499871      8.19645335650139
  H   11.78181915159718      3.46578544768423      6.28164794554226
