51
Coordinates from ORCA-job AGUDOY_1_4_tpss_d4_lanl2dz_631gpol_Co2.opt
  Co  11.04046641092540      0.78849391535726      5.89368611157827
  C   13.03360088914956      2.17323582673082      4.16272348086174
  O   11.80508031308812      1.75628138724439      4.37282854717994
  C   13.33453531306023      2.79822838025090      2.92774475981466
  H   12.52599394319094      2.90519776438381      2.20493989628719
  C   14.61963700303328      3.25962846815168      2.64443617337029
  O   14.94842241903652      3.86270047058879      1.46999258105776
  H   14.15531631225135      3.91356948527461      0.89821241940045
  C   15.67501440453076      3.12163033732075      3.58602901657162
  H   16.66354829345301      3.49319732823207      3.33227679841522
  C   15.40491886221300      2.52213328728174      4.79517427328293
  H   16.20295799589914      2.41230520834425      5.52930960214744
  C   14.10583687154115      2.03288214552920      5.12992852104514
  C   13.93882126570908      1.46074434115953      6.41597616482392
  H   14.81376477241817      1.45478642394358      7.07742582183780
  N   12.80821586706041      0.94773754304044      6.87241116983042
  N   12.79572387381766      0.46067219591736      8.16742446357300
  H   13.64810599801830      0.43365605472995      8.72657240860878
  C   11.59722645880218      0.05285162107119      8.66460629012908
  N   10.57818181514106      0.00708086986844      7.83848365121636
  H   9.69233126060351     -0.17808362105903      8.31045233783935
  S   11.61637168850922     -0.29291013981777     10.42047519086410
  C   10.64250951840404     -1.87213542115656     10.43464218418820
  H   10.51101559987369     -2.07286486824529     11.50532212751850
  H   9.64589502867043     -1.67244838927684     10.02141260872457
  C   11.34968565500141     -3.02869925125133      9.72682884744349
  H   11.52312594806461     -2.79685329334121      8.66791080782719
  H   10.72822190211847     -3.93266783700397      9.78477947052355
  H   12.31722968783748     -3.24180098156046     10.19545403954563
  N   10.66922976974408     -1.01460552235958      4.89422148447397
  C   10.63070539897060     -0.95547236465862      3.54158124888463
  H   10.82854819707309      0.02624568035766      3.11729125211668
  C   10.37217178734569     -2.07923599855523      2.75517801710500
  H   10.35140827918229     -1.98749071052831      1.67203734521253
  C   10.14881891673521     -3.30986403716513      3.38452209604575
  H   9.94753863928297     -4.20356012995657      2.79737398084626
  C   10.19346634151607     -3.37224182711639      4.78321259353769
  H   10.03058442439886     -4.30836868134606      5.31192814081355
  C   10.45707705206100     -2.20436219303000      5.49968643360286
  H   10.50338153006523     -2.18652113737033      6.58588374188544
  N   9.12051001263502      1.57777095272094      5.50987839219131
  C   9.00078317752961      2.79232566681515      4.92561190159460
  H   9.93852921446074      3.28040001796791      4.67269427032245
  C   7.75850523801985      3.36479209552079      4.64483287036989
  H   7.70770080786209      4.34552582605609      4.17848618315947
  C   6.59727130830824      2.65429198884307      4.97059080882726
  H   5.61512354279580      3.07399267387456      4.76296673407322
  C   6.71908107862011      1.39041313625299      5.56337002252042
  H   5.84289114093827      0.80166107728600      5.82367157534546
  C   7.99661397112653      0.89150957485698      5.81561233054176
  H   8.15000479990579     -0.08855534017424      6.26300881102288
