53
Coordinates from ORCA-job AGUDOY-OH_1_1_tpss_d4_lanl2dz_631gpol_Co2.opt
  Co  11.13960735236486      1.17256133141757      6.03624662034470
  C   12.80457407081615      1.91070157519721      3.83067426972335
  O   11.58311855103381      1.71003751817015      4.29545157649995
  C   12.91785154563330      2.47183044247442      2.53754349330456
  H   11.99899804346857      2.73295010236407      2.01415895767309
  C   14.16766009799962      2.67695139104938      1.95119997091369
  O   14.32027877944529      3.20894802744148      0.70943634761901
  H   13.44120823708665      3.42513792295815      0.33635568860066
  C   15.36649753205414      2.33673237036187      2.63253262025838
  H   16.32168471726985      2.51573771058483      2.14785168561472
  C   15.27464454890259      1.79934129156377      3.89683089188980
  H   16.18370973007675      1.54292743989438      4.44013192434720
  C   14.01893876324376      1.57037351108011      4.53378887614225
  C   14.02009312484583      1.05029514172212      5.85505610880764
  H   14.98339097595786      0.84968575698002      6.33347704635464
  N   12.92511146287464      0.81212819353773      6.53783027149505
  N   12.99713463017096      0.35986099192661      7.84144524443393
  H   13.89824894422915      0.16145126699846      8.27362196447688
  C   11.83655137810027      0.39959499884491      8.54592795470938
  N   10.74840205306687      0.63289568029688      7.84799976709982
  H   9.92212498765955      0.89479536555415      8.38480633593849
  S   11.97800847471148      0.14714326624192     10.29881976215096
  C   10.53068960181622     -0.98490500541110     10.57013082998750
  H   10.51721059599236     -1.10170680088992     11.66121124128401
  H   9.61346722294889     -0.45108978362781     10.29300936891159
  C   10.66477391442817     -2.33179535688252      9.85889615222516
  H   10.70885366708462     -2.20212996837054      8.77014046666292
  H   9.79314503757691     -2.95730547665760     10.09533545015267
  H   11.56850542312578     -2.85901398028415     10.18542354774716
  N   10.90342612924746     -0.74085361070212      5.41171192530372
  C   11.75748932831349     -1.28215857620151      4.51470993959327
  H   12.53836586491070     -0.62705731106697      4.14194560130653
  C   11.64712603826940     -2.60684073250952      4.08753125326693
  H   12.36027942439590     -2.99838360637578      3.36638487806166
  C   10.61596895588989     -3.40277961027039      4.59853299034532
  H   10.50504464190378     -4.43798773070627      4.28301276194123
  C   9.72842187227954     -2.83968509297283      5.52450589386923
  H   8.90879316321626     -3.41632347055378      5.94628609140937
  C   9.90647585458873     -1.50990534517981      5.90554677592777
  H   9.25114561599852     -1.02371472466679      6.62244717443277
  N   9.30756548626663      1.61322932183683      5.59784251802557
  C   8.73772851688108      1.16809860489924      4.45566613902354
  H   9.37101211963986      0.56208577117013      3.81626240558595
  C   7.42418695070158      1.49272306557497      4.11639756749916
  H   7.00252482082173      1.11832555347324      3.18699538467540
  C   6.67915287842916      2.30305553378132      4.98161518614563
  H   5.65155479272256      2.56877533600155      4.74256848416019
  C   7.28570505977129      2.78041549243811      6.14976375554170
  H   6.75338780222788      3.43267056263495      6.83756765887582
  C   8.60796430132140      2.42688909470890      6.42228967789007
  H   9.17872761027811      2.82189400144931      7.25909348380190
  O   11.35948138322901      2.88114676888037      6.71054131733910
  H   11.47213792470939      3.42455577982022      5.90019670060808
