58
Coordinates from ORCA-job AMIQES-CH3OH_1_4_tpss_d4_lanl2dz_631gpol_Mn2.opt
  Mn  6.63759945647562      2.03360925629930     14.58668859156108
  Cl  7.24877846692463      3.94500744882092     13.51588152164086
  Cl  8.07457383755335     -6.64544485546035     13.76825975521828
  O   7.31997690698506      0.25446239375804     13.34439497943121
  N   8.51737607076456      1.75100738290722     15.20310997545930
  N   8.58481791749339     -1.58130959650351     13.94906612942353
  H   9.33715962954049     -1.87046750150984     14.56960023041957
  C   9.19770508986760      2.66726941111466     15.92978134975240
  H   8.62988317507037      3.54340635249619     16.22431117700293
  C   10.53973349418114      2.49071640394609     16.26840504509096
  H   11.04967398335396      3.25706704751692     16.84588691246974
  C   11.20908381892745      1.33673051685039     15.84224215488958
  H   12.26072118150845      1.18548924500576     16.07304717429303
  C   10.50503934597465      0.38756544198045     15.09201840996214
  H   11.01248624881239     -0.49418512516924     14.70553886920163
  C   9.16026035036297      0.62094967554684     14.79109477655714
  C   8.29232186912422     -0.25585306770949     13.95410177145315
  C   7.84870445062135     -2.65138711540262     13.38211871045968
  C   6.77836721363831     -2.46929179437806     12.48803327335938
  H   6.49763670442229     -1.47281411992292     12.16928585489209
  C   6.10557822726701     -3.60186454175057     12.01461783187937
  H   5.28388605067931     -3.47310778871231     11.31238637463427
  C   6.47631769994553     -4.89606956504276     12.40058528095252
  H   5.95387911158744     -5.77000275039014     12.02244357507276
  C   7.55733857398130     -5.04633523427846     13.27728388172620
  C   8.24455609490076     -3.94027301787034     13.77580457960459
  H   9.07371331884006     -4.08458740721229     14.46525369284784
  O   6.20528424574796      3.16469498989470     16.53900486078877
  O   5.95970696575836      0.46790843332134     15.63489671164750
  C   4.99102816773872     -0.09449922505467     15.00110609956432
  N   4.71380106873136     -1.41295041096547     15.12816418211744
  H   3.97422333114900     -1.76091225976231     14.52303546345836
  C   5.43083951180793     -2.42918564136142     15.80419324054502
  C   6.50462695633757     -2.18199179738847     16.67884205314706
  H   6.80668858702983     -1.16595912510871     16.90069509501476
  C   7.15662570620028     -3.27475852792697     17.26189614129385
  H   7.98239808893962     -3.09244889499177     17.94731392375729
  C   6.76088231048209     -4.59336827140554     17.00633938472386
  H   7.26700964984299     -5.43525708119412     17.46967165207264
  C   5.67675096909263     -4.80871363189119     16.14627387452594
  Cl  5.12959984785833     -6.43747038650294     15.81563468507334
  C   5.01149047135018     -3.74467263428094     15.53982125081841
  H   4.18194017747493     -3.94172951742592     14.86410757213086
  C   4.20314375587615      0.73540685019303     14.09354373369043
  N   4.82594076659829      1.94576796599330     13.85349707725115
  C   4.18486493999503      2.86598531946275     13.08364079904039
  H   4.73036322569145      3.79084437006724     12.91914307186206
  C   2.93493376211133      2.62005240339769     12.52922484571343
  H   2.46462893684274      3.38692877606092     11.91969730242505
  C   2.30123342969977      1.38166063370050     12.75601023603884
  H   1.32310020300364      1.17151441181826     12.33098122076812
  C   2.94656657508688      0.43309062741138     13.54502090844114
  H   2.46131491575382     -0.51742258035012     13.76024964603850
  C   5.34510382270444      4.33627040876952     16.48610448795702
  H   5.81222098704101      5.00720457524035     15.76262145271376
  H   5.30033251632796      4.80978935485811     17.47380348264092
  H   4.33696587665809      4.06572199520610     16.14551969847326
  H   5.80889194226257      2.51038177528561     17.14936396700820
