54
Coordinates from ORCA-job AMIQES-OH_1_3_tpss_d4_lanl2dz_631gpol_Mn2.opt
  Mn  6.58619217927896      1.65489933354719     14.88653673382016
  Cl  7.34944229294010      3.00510449784160     13.19817464572310
  Cl  9.16479396863583     -5.73914811449871     10.75979697290696
  O   7.15378697325979      0.05017621337289     13.81427242992129
  N   8.43609857290082      1.49006210031574     15.50119580440275
  N   8.92808612880165     -1.28833878997961     13.26629803286851
  H   9.88836271036016     -1.52929966846616     13.49734143649109
  C   9.02438593819246      2.35265092427371     16.35667683085241
  H   8.36446235192630      3.11980404301733     16.75195332088574
  C   10.38197586721263      2.26261843513553     16.66749748578617
  H   10.81899989567308      2.97808184745825     17.35896586077602
  C   11.16169992643186      1.26401848538131     16.06888154828167
  H   12.22358306647030      1.18097621444741     16.28629792595360
  C   10.55589279292236      0.38542096688912     15.16637416137215
  H   11.15338670578767     -0.37645805716549     14.66993663726771
  C   9.18997185573437      0.52315331683890     14.89891268774909
  C   8.37614493762227     -0.26788455056517     13.95361850886398
  C   8.31964192700689     -2.11098538847187     12.27656976915740
  C   7.19666486070311     -1.70261194616778     11.53650860932255
  H   6.74757156619216     -0.73182036439042     11.70901732633120
  C   6.69435773058272     -2.56533710645765     10.55690282956323
  H   5.83374428312382     -2.25445850197163      9.96837954214129
  C   7.28223170076765     -3.81067641226862     10.30434854060120
  H   6.88875648082787     -4.47352053734074      9.53893045071391
  C   8.40284200408241     -4.18860388462349     11.05366800159449
  C   8.93149079028613     -3.35265855788335     12.03903259729391
  H   9.80091901948614     -3.66974059673953     12.61162966815037
  O   6.20351001742364      3.00682501430082     15.99018629901623
  O   5.85717371037320      0.30445085413819     16.13794444944850
  C   4.77940118845583     -0.23578893714342     15.72134967120451
  N   4.29576095950962     -1.37531914060344     16.25216664877332
  H   3.44592717121444     -1.74001368241627     15.82831036426863
  C   4.81965958209919     -2.18173019827396     17.29938931381471
  C   5.96730809892027     -1.84484705965789     18.03921016315457
  H   6.50659492666630     -0.92923783897351     17.83284895987115
  C   6.38858015871021     -2.71651405618505     19.04901519752601
  H   7.27231612164382     -2.46325485041365     19.63070153874126
  C   5.69898697589116     -3.90030512217697     19.33418090595251
  H   6.03155326313336     -4.56949638863163     20.12255229418928
  C   4.55869323470592     -4.21091700866921     18.58244578208310
  Cl  3.67152876330215     -5.68352330649049     18.91303093396357
  C   4.10929313536840     -3.36525034934441     17.56771324999038
  H   3.21990435033478     -3.62901563948632     16.99793324991890
  C   4.03454888543533      0.44348655311390     14.63294797735989
  N   4.74184139914953      1.49595992137659     14.13390543300406
  C   4.18510167714798      2.30502522153278     13.21399531495209
  H   4.81801522404683      3.11891615440798     12.86841379463765
  C   2.88846489629812      2.08008786613243     12.73815020618887
  H   2.46614619532534      2.75242108022456     11.99624661982829
  C   2.15998326734089      0.98955708218721     13.22590812362881
  H   1.15098723960643      0.79271177694999     12.87134714483381
  C   2.73845295365697      0.15746033836084     14.19196154552711
  H   2.16772391445218     -0.67508366131228     14.59837352065322
  H   5.75771616257803      2.64914147552450     16.79031293867646
