54
Coordinates from ORCA-job AMIQES-OH_1_1_tpss_d4_lanl2dz_631gpol_Mn2.opt
  Mn  6.58592576574704      1.61671904158839     14.86098562232772
  Cl  7.30697521020080      2.91420082654998     13.11715185704803
  Cl  9.35437877933859     -5.69531570163944     10.64119161777233
  O   7.18250660790393      0.01163393038411     13.76448655693144
  N   8.45118330751981      1.45641143151951     15.47782824471591
  N   8.98070902441921     -1.29544008582420     13.21848462555899
  H   9.94321204116086     -1.52133578254316     13.45495023818889
  C   9.02123259113579      2.30177432624276     16.35820010002809
  H   8.35099456460351      3.05048768687670     16.77122334361698
  C   10.37640923454690      2.20953134793040     16.68622440330954
  H   10.80366731445545      2.91009422210714     17.39870104480732
  C   11.16266338782847      1.22221681937792     16.08145445923082
  H   12.22142139624237      1.13467810738211     16.31271267304540
  C   10.56909708459893      0.35260675082169     15.16035980242859
  H   11.17405254181748     -0.40631868438591     14.66869038325959
  C   9.20737160145039      0.49510099816233     14.87748955024216
  C   8.40327135540755     -0.29325960282216     13.91267721362860
  C   8.39781208977833     -2.11900714529290     12.21471481916518
  C   7.26216966757194     -1.73430145716541     11.48141998359701
  H   6.78297760083764     -0.78113962517264     11.66991487893901
  C   6.78583241784816     -2.59733549233408     10.48917939703568
  H   5.91464359947582     -2.30494772769571      9.90679457872871
  C   7.41186940249821     -3.81961565191854     10.21691983473502
  H   7.03812883913491     -4.48278899002261      9.44195876867279
  C   8.54455729572108     -4.17387321240278     10.95961646298393
  C   9.04782019447261     -3.33729742996160     11.95738376080909
  H   9.92705905193034     -3.63621435980963     12.52484359175000
  O   6.27765808296843      2.89508160409256     16.06041574949442
  O   5.91297678423451      0.16898502393431     16.04839265041214
  C   4.75991781687890     -0.26884393191282     15.74979932143705
  N   4.22401931096889     -1.35287053244073     16.34692179972907
  H   3.30974005758301     -1.64682038197465     16.01274246838361
  C   4.77356694376495     -2.18233574532580     17.36237770084195
  C   5.96228842741495     -1.87990481554027     18.05028837050051
  H   6.51723075770915     -0.97892066039587     17.82137133683214
  C   6.40098535412893     -2.76362603469008     19.04205519489283
  H   7.31590853698844     -2.53596638166459     19.58484504573739
  C   5.68964616899461     -3.92636583753712     19.35900603314977
  H   6.03643824872951     -4.60542711254196     20.13267599227422
  C   4.50806520651181     -4.20159910277043     18.65938061731810
  Cl  3.59130746841515     -5.64685666391132     19.03170065717286
  C   4.03964588534918     -3.34300980069780     17.66435386420300
  H   3.11870753058776     -3.58005852965354     17.13440192147342
  C   3.98667039811727      0.46698000037677     14.72080208015984
  N   4.71696958463157      1.49765697949732     14.19654967441991
  C   4.14492617779046      2.30910375451152     13.27985661219513
  H   4.78778949536500      3.09671646682747     12.89413731276781
  C   2.82868453772644      2.12072605176278     12.84866259244030
  H   2.40728906263625      2.79785080953863     12.11045390218287
  C   2.07961929277642      1.06133584570708     13.37234171525289
  H   1.05439942975274      0.89164534063694     13.05246778371912
  C   2.66869584053314      0.22165702063930     14.32433108935603
  H   2.09125687509409     -0.59651330997865     14.74977619963909
  H   5.37831475670183      3.28528540355873     16.02259450145656
