52
Coordinates from ORCA-job AMIQES_1_4_tpss_d4_lanl2dz_631gpol_Mn2.opt
  Mn  6.52920458236628      2.14437497950135     14.80810330251647
  Cl  6.92157710771560      4.26727267765252     14.18894877985735
  Cl  8.10968352164469     -6.40413855630319     13.80861396813148
  O   7.30667822984634      0.50782403988555     13.52567362201859
  N   8.38388608090753      1.94384794129202     15.49885987878501
  N   8.54373403328534     -1.34284535391851     14.14687344192733
  H   9.27311413059224     -1.64409365202345     14.78896196152524
  C   9.01747410245807      2.84165369804411     16.29067090043297
  H   8.43831344054827      3.71631736477573     16.57174644553690
  C   10.33975327643963      2.66432672518769     16.69749447664335
  H   10.80857027181866      3.41515698564259     17.32771766479170
  C   11.04315388230058      1.53050990345147     16.27094725087883
  H   12.08148994782871      1.38020401157956     16.55558406390100
  C   10.39244855372864      0.60292847674672     15.44996011265948
  H   10.92978756301554     -0.25930714522602     15.05994620180610
  C   9.06303475493036      0.83344878432583     15.08422320622968
  C   8.25013283003345     -0.01991824333037     14.17267538808455
  C   7.82870740283025     -2.40474882802043     13.53800721055697
  C   6.75922665861062     -2.21101384315012     12.64574249453046
  H   6.46795899192883     -1.20996385292291     12.35185276466089
  C   6.10263188405152     -3.33863341482623     12.13878076879130
  H   5.28134965157664     -3.20062908605839     11.43803806353003
  C   6.48962684471152     -4.63809543278712     12.48914105919500
  H   5.98055259806986     -5.50753239283625     12.08338311455579
  C   7.57030895034260     -4.79955626409912     13.36470827770408
  C   8.24039668240746     -3.69883635633317     13.89694379457632
  H   9.07074844745961     -3.85179675860145     14.58307788560719
  O   5.92459119874363      0.53682121259389     15.78464444676352
  C   4.91818585392108     -0.01233130420659     15.20745565844096
  N   4.63363750091153     -1.32252406170555     15.35633893895943
  H   3.85194151143135     -1.66446988296309     14.80260080068538
  C   5.38713863211320     -2.34481638121398     15.98685025099550
  C   6.46030200946450     -2.09779295740323     16.86126164530577
  H   6.73523318749374     -1.08279480286476     17.12076814851838
  C   7.14362407191274     -3.19321052873183     17.40216655729103
  H   7.96767629844527     -3.01443916804971     18.09038241882094
  C   6.77756247026662     -4.51177510941752     17.10438288632180
  H   7.30642344272871     -5.35604025279561     17.53726229391248
  C   5.69203424420758     -4.72684094378533     16.24580203713609
  Cl  5.17994888312419     -6.35569651188371     15.86839358657713
  C   4.99697399227784     -3.65912996507459     15.67960071359992
  H   4.16652243858349     -3.85275102034674     15.00391231554898
  C   4.08634727706174      0.83390003802119     14.34850109413071
  N   4.70299326771221      2.04204184759758     14.10078462930623
  C   4.03513154257076      2.96971578501354     13.36534211816281
  H   4.56452665269312      3.90407457520674     13.20473470329105
  C   2.76220642324241      2.73033636602474     12.85700953881074
  H   2.26922869950968      3.50658473782447     12.27800006900588
  C   2.13286353245693      1.49671448930109     13.10020118369355
  H   1.13588549307857      1.29445867837064     12.71725063436118
  C   2.80744318435942      0.53945301690016     13.85707987508290
  H   2.32733377024014     -0.40974426406008     14.08799735584174
