50
Coordinates from ORCA-job DACRIK_1_4_tpss_d4_lanl2dz_631gpol_Co2.opt
  Co  4.13008943115155      6.96621918745338      1.97159249275049
  Cl  3.64890933788169      4.90433891795067      2.85633855695452
  N   4.37240007916471      7.72065700327149      3.96432235195129
  N   4.09370774907580      6.28681292023275     -0.03937460507295
  N   2.80465229615155      8.55580607380111      1.99596385430224
  C   5.61242033118647      8.06156955284587     -0.24475082433241
  N   5.59071122075632      8.19504258826340      1.08649019754723
  C   6.88508184974483      9.84541543454400      0.17381495800188
  C   3.63673378193073      8.82697327498203      4.25676806598821
  N   6.37961712499207      9.02954868238859     -0.83319707111948
  H   6.53703790381536      9.14663232482909     -1.82843427310620
  C   4.93694032705540      6.68226084819419     -2.26858954116803
  H   5.57384717269292      7.24962267551920     -2.94403144710150
  N   2.04237038395873     10.38198768550630      3.03295388375506
  H   1.89312113841094     11.07311018142568      3.76014349911497
  C   1.47082802786878     10.39527403400342      1.76423996078331
  C   3.38570681687382      5.23837692256299     -0.49705801870013
  H   2.82083491368719      4.69533700792490      0.25781494003729
  C   1.96864312343688      9.23088771530127      1.12000809888987
  C   3.39530620430484      4.87041507725842     -1.84808149579802
  H   2.80473963614887      4.02126859614907     -2.18126318553913
  C   1.58642135534666      8.92624423268770     -0.19651662257317
  H   1.94691739223269      8.02750029301530     -0.68929728658836
  C   4.17920738907277      5.60630786812247     -2.74434273659844
  H   4.21247112911851      5.34056081742537     -3.79854068401495
  C   7.71600978463709     10.97082236720724      0.14128205955138
  H   8.10501698890820     11.37697483319739     -0.78947991021298
  C   6.70353403857707      9.88896772051809      2.61673476794292
  H   6.34107171125469      9.47172229654452      3.55103260293825
  C   5.21185950419510      7.70546552074120      6.21453717389953
  H   5.83584628662455      7.22704512524208      6.96461367485505
  C   4.87055306404357      6.99465046041130     -0.90493816027227
  C   0.59298185286122     11.28565882800558      1.13578948500608
  H   0.21132229177411     12.17281828087215      1.63562742615387
  C   6.37414768149024      9.30226472346272      1.38345206256816
  C   7.52955021087621     11.01171245363308      2.59004209366806
  H   7.80985677797808     11.48986680438680      3.52614168644291
  C   2.83120172200767      9.26750539118222      3.12718832798032
  C   5.12267198857773      7.16032629649905      4.92853605537538
  H   5.64304803524386      6.24789543748640      4.64781253464288
  C   3.66444088950969      9.42677482374311      5.52296278726142
  H   3.06069912535897     10.30511035094979      5.74158776952803
  C   0.71381191008276      9.81137745791427     -0.82744926954650
  H   0.38904066238521      9.60749538090366     -1.84545587356264
  C   8.02523808785853     11.54471687543494      1.37546571681359
  H   8.66978154382048     12.42030734972388      1.40508532497958
  C   4.47465943093829      8.85872363062592      6.51130228414269
  H   4.51588754466855      9.30179729582928      7.50378015528363
  C   0.22691169975632     10.96980620163586     -0.17388201018817
  H   -0.45605894948856     11.62892417819017     -0.70504183361488
