56
Coordinates from ORCA-job DACRIK-CH3OH_1_4_tpss_d4_lanl2dz_631gpol_Co2.opt
  Co  4.19581834453404      7.08969003623884      1.90479691537345
  Cl  2.60411101105876      5.54704616842921      2.66687172520652
  O   5.91963467110469      5.74824331010835      2.25403603482116
  N   4.39189416978230      7.81326436643967      3.92267965303780
  N   4.11069211202314      6.43513996072484     -0.15425589441281
  N   2.91166642425662      8.74857567225293      1.91185195893144
  C   5.60276092189902      8.22876124553318     -0.41241319286283
  N   5.64096774780067      8.34361868116559      0.91788855198714
  C   6.82284396629116     10.05831332099271     -0.03163305935011
  C   3.51806934516086      8.80037800184536      4.25922082623050
  N   6.30671776149503      9.23307088744164     -1.02607672994635
  H   6.39629408843354      9.37969394849254     -2.02577290263552
  C   4.81337366451396      6.89573906766829     -2.42336954321466
  H   5.40879176451349      7.48303463803502     -3.11961876681900
  N   1.81583684048181     10.28819207513810      3.10645037479863
  H   1.50177875985467     10.82895312765305      3.90460655965138
  C   1.33577927913890     10.39941739476481      1.80671123433109
  C   3.34278558376267      5.42660059223430     -0.60647873767118
  H   2.77930639192790      4.90220477064401      0.16440448123282
  C   2.04276954382235      9.41425233283043      1.06497801221404
  C   3.26430343913419      5.10103269637530     -1.96656673506395
  H   2.62697001429795      4.28241641322336     -2.29040974660422
  C   1.79242941944519      9.24277785778371     -0.30641753142340
  H   2.31029812950969      8.47731148926353     -0.87720649742730
  C   4.01060462316784      5.84719155798847     -2.88607726112712
  H   3.97136272272921      5.61854228648346     -3.94884540921739
  C   7.60291116423058     11.21942295689361     -0.07985439370597
  H   7.93483619120444     11.65729516722581     -1.01834457039646
  C   6.73354336234870     10.06593704864419      2.41973620326149
  H   6.40870069672460      9.62483622196276      3.35784581977484
  C   5.07247409628644      7.66141673123967      6.22403470335393
  H   5.69795527864716      7.18118837912210      6.97191938083663
  C   4.83817654227160      7.16262555599145     -1.04772310573725
  C   0.37965749840352     11.23864457508905      1.22364851719253
  H   -0.16024060300265     11.98808398812304      1.79775261825432
  C   6.38816146584318      9.47924072079502      1.19109520238182
  C   7.50760552930968     11.22435955644195      2.37707983165124
  H   7.79706351637247     11.70881491508392      3.30711822421924
  C   2.75168763868522      9.28591871413563      3.12172478958591
  C   5.14335522582867      7.25582167943036      4.88725003134901
  H   5.80932586044536      6.46409164514613      4.55443857286388
  C   3.38847716205674      9.26321385296951      5.57598341639073
  H   2.68047014731085     10.05077566019353      5.82528268059750
  C   0.84092215446068     10.07601394345834     -0.89176908337799
  H   0.61419776810412      9.96897689227590     -1.95048656709147
  C   7.93428915089213     11.79022331684233      1.15040417978551
  H   8.53907788242158     12.69414219548042      1.16721505701283
  C   4.17988622776050      8.68294258371307      6.57101836906655
  H   4.09472905509215      9.01884229022432      7.60201113663692
  C   0.14843836661928     11.05735462762408     -0.14104110356353
  H   -0.58872528721339     11.68264944293896     -0.63982009186022
  C   5.77050173808157      4.30664053743194      2.10946041534367
  H   5.58678175204080      4.03932848755855      1.06131939258306
  H   6.67369182388279      3.80730347283930      2.48005601497630
  H   4.89926936014193      4.04325682622540      2.71101207747095
  H   6.62796849460936      6.05729611514826      1.65433796110382
