52
Coordinates from ORCA-job DACRIK-OH_1_5_tpss_d4_lanl2dz_631gpol_Co2.opt
  Co  4.41300393634306      6.92891499256361      2.03141502011287
  Cl  2.65283682137788      5.54861862548764      2.77753358813173
  O   5.77668981428429      5.76629016176164      2.39677260888706
  N   4.49594008574732      7.81382419638805      3.99421115994623
  N   4.10139125375796      6.43557812297338     -0.03984356734507
  N   2.96661357430749      8.56303333824717      1.93051834358471
  C   5.70817909798525      8.13766471087250     -0.27445721128325
  N   5.69649692019582      8.29955035040164      1.05024154975461
  C   7.12679344933829      9.81386086595662      0.11575406536055
  C   3.58973982877978      8.78688532784829      4.26854471171462
  N   6.55523538340293      9.02793188783873     -0.87928817618279
  H   6.74425120616012      9.09877968443895     -1.87331184902201
  C   4.82270395439024      6.88931194888728     -2.29695518705099
  H   5.44534301812060      7.45283317524736     -2.98844384849327
  N   1.80210468884143     10.10416446990601      3.05847529510826
  H   1.46966725393425     10.67067651648463      3.83112927191160
  C   1.29668641144724     10.11570216051117      1.76510544874252
  C   3.27000085717139      5.48428818734923     -0.49777266195716
  H   2.68284640753039      4.97737733332964      0.26578192776003
  C   2.04681636814531      9.13155023647804      1.06299771349211
  C   3.16536424258703      5.18677611491642     -1.86218744153596
  H   2.47928382365181      4.41267756320520     -2.19524729615987
  C   1.77915620117551      8.88323237816952     -0.29460037142359
  H   2.32743257993863      8.12838093805929     -0.84724607948049
  C   3.95312434055641      5.90134385446079     -2.77163483099813
  H   3.89532453712321      5.69357681283474     -3.83780080184891
  C   8.05242684659541     10.86224102490809      0.07051900031459
  H   8.47957190814182     11.21880232068334     -0.86380932200853
  C   6.93570908493068      9.91650350535224      2.55845338170788
  H   6.52254236074022      9.55181646139358      3.49378280255827
  C   5.23201098469031      7.86234017045538      6.27794737680693
  H   5.89434451242420      7.46796466887212      7.04391603845824
  C   4.87368362965990      7.13213771970843     -0.91775961464427
  C   0.28497887434091     10.87146121363955      1.16254704068885
  H   -0.28304868349997     11.61891042804563      1.71151674351314
  C   6.56770059519663      9.33718160870839      1.33280245496104
  C   7.85604087498042     10.96217850178018      2.51854055111249
  H   8.16893700653190     11.43419941525666      3.44730438279746
  C   2.79348241740592      9.16068123010797      3.11072818970298
  C   5.29512480703853      7.35935943370760      4.97402906854068
  H   5.99011482547115      6.57799072903050      4.67746430978445
  C   3.46745561607446      9.34125213205887      5.55016291993436
  H   2.73577031075410     10.11930842041788      5.75623516677816
  C   0.77184246124695      9.63250232030797     -0.89938210654024
  H   0.53621069813238      9.46064614577056     -1.94748229867315
  C   8.40388071810152     11.42708513815679      1.29780649824854
  H   9.12127034396539     12.24438227914730      1.31721656413990
  C   4.30215158138957      8.86848440037032      6.56692597730499
  H   4.22357538316869      9.27799156324255      7.57145172832407
  C   0.03772794460942     10.61017886093414     -0.18558867268678
  H   -0.74161234395570     11.16847004817493     -0.69933597614846
  H   5.39237118557128      4.89501630515107      2.64645641329889
