42
Coordinates from ORCA-job AXIKUN_3_1_tpss_d4_lanl2dz_631gpol_Co3.opt
  Co  5.73378336348317      1.54860795220504      1.54196376654273
  S   5.01605199552133      2.80697694108946      3.19506980276978
  N   4.26598107081428      2.37385864141606      0.47912382113614
  H   4.51844881692465      2.23712222144639     -0.51250680688229
  H   3.37418975544111      1.87012389384855      0.58406794633913
  N   4.63104995760168      0.10452346551152      2.35905057482033
  H   3.65385739864737      0.12308809251267      2.03537984803932
  H   5.00072110299203     -0.78710536332206      1.99323208047639
  N   7.29516941408649      0.69291645083351      2.43204129093003
  H   7.65411135751826     -0.01906429086399      1.77328635190550
  H   8.07363395529236      1.35824595374676      2.51591233355102
  N   6.95563328827117      2.85856957717810      0.67686262181418
  H   7.78698518691576      2.99870272432098      1.26404890802398
  H   7.32886868929864      2.41066589089827     -0.17732885905131
  C   6.43859648407634      4.23889996543734      0.29417028135605
  H   6.16277821802467      4.21856477494383     -0.76642208906791
  H   7.26411851900154      4.95070416702983      0.41002792832031
  C   5.93491471520600      2.12642346419382      4.62925973243419
  H   6.95176376472507      2.53267390821850      4.69103122186486
  H   5.36361140133908      2.47467467023876      5.50412511633495
  C   5.89410112769255      0.55743047888122      4.55739148515305
  C   5.22735849356304      4.66545883534360      1.14667237284730
  C   5.54862954747953      4.48467145693593      2.67420853023317
  H   4.91695294810770      5.16210734708491      3.27000172947963
  H   6.59926176861154      4.67389774488075      2.92551506265690
  C   3.97774220829929      3.86338659137290      0.70274522352036
  H   3.16961717273713      3.93284295016284      1.44029839381069
  H   3.60051968518691      4.26876715572267     -0.24382470827991
  C   7.12340556545644      0.02816877087133      3.79268586957892
  H   8.03973757702615      0.20146995426384      4.36844701647814
  H   7.02896971995592     -1.05256352904452      3.63622635278258
  C   5.95566001261262      0.02401248619856      6.01308491697853
  H   6.79272291950755      0.47781186554810      6.55779207995951
  H   6.09428683659181     -1.06470634890806      6.01855124800215
  H   5.02813263866944      0.25360025992210      6.55206465131970
  C   4.95519457243321      6.17279258818018      0.90048447288206
  H   4.01406461480960      6.47964069084936      1.37308608044045
  H   4.88216893479594      6.37891329470010     -0.17507482983635
  H   5.76528316744692      6.78715347394403      1.31215916271122
  C   4.60090520426471      0.02243295931275      3.89117836765733
  H   4.46180446719054     -1.03153196801098      4.15957864816849
  H   3.71541236238022      0.57336984090495      4.22873200179861
