48
Coordinates from ORCA-job AXIKUN-CH3OH_3_1_tpss_d4_lanl2dz_631gpol_Co3.opt
  Co  5.75191110976135      1.62514632667751      1.61318722727742
  O   6.14452512427411      0.27619930440950      0.10049897156499
  S   5.02021977910192      2.89385691880816      3.28695056773802
  N   4.27770483226555      2.49937305959568      0.56853293172015
  H   4.55389141088117      2.40755818107737     -0.41792070018138
  H   3.39224981827856      1.98120822780778      0.64577204631850
  N   4.63723517146639      0.19168522236788      2.47201703538164
  H   3.66681855020461      0.18667977836668      2.13020052812397
  H   5.04512730394915     -0.69170117514850      2.13578566648879
  N   7.29200501661010      0.80251645718083      2.58862426592145
  H   7.64884854419131      0.08962301679250      1.93798527469845
  H   8.05961126365913      1.47705687944830      2.68779157856034
  N   6.98022910957259      3.02712982884459      0.89600192721641
  H   7.68109508977148      3.23080716911072      1.61888356323262
  H   7.52026748138411      2.63021617002010      0.11511983062246
  C   6.41686865269723      4.36272544135488      0.44745813152143
  H   6.14192103613369      4.27796922488001     -0.61028724624428
  H   7.21807668791683      5.10822412291011      0.52279522519743
  C   5.89972060560709      2.24315122888744      4.76174273940840
  H   6.92049953443004      2.63744422485731      4.83549002336359
  H   5.32071576390919      2.60360884281351      5.62312829369599
  C   5.85582137152990      0.67901093250418      4.69081715442418
  C   5.20012854143659      4.78759354840961      1.29103929677213
  C   5.50651103591442      4.60552923727515      2.81598521548087
  H   4.85873540283139      5.25930393106873      3.41587839317949
  H   6.55090912450534      4.81937978887593      3.07499119493963
  C   3.96065866646210      3.97218190329327      0.83913292245791
  H   3.16063557290714      4.00670169366377      1.58692712175710
  H   3.56621431365832      4.39482656831730     -0.09273718620669
  C   7.09016746819430      0.14296975415691      3.94438870817164
  H   7.99706276463284      0.30892898860745      4.53728420077048
  H   6.99321299754263     -0.93681711592699      3.78367018285003
  C   5.88993009990408      0.14430282273413      6.14575731737703
  H   6.72082304538838      0.59330852850858      6.70369988911296
  H   6.01947707289106     -0.94545703556836      6.15634421651988
  H   4.95630049601479      0.38348843542349      6.66970636682812
  C   4.91495306996122      6.29021617818272      1.04035167278048
  H   3.96925708335239      6.58841409775417      1.50929367555731
  H   4.84421665580637      6.49584346625164     -0.03547913890014
  H   5.71631541245991      6.91294019090656      1.45643653464716
  C   4.57229973409761      0.14517877268035      4.00197985440287
  H   4.41862256212546     -0.90265405148438      4.28624668387839
  H   3.68594815864686      0.71027269070973      4.31065667691442
  C   7.22548591571349      0.26451023901085     -0.92090305097575
  H   7.01726194926369      0.99877678746801     -1.70600013989870
  H   8.15568087171702      0.49035406451298     -0.39350212882212
  H   7.28144046391980     -0.74378332175111     -1.34094879954659
  H   5.35094826305695     -0.12050954664719     -0.31849471609864
