48
Coordinates from ORCA-job AXIKUN-CH3OH_3_5_tpss_d4_lanl2dz_631gpol_Co3.opt
  Co  5.75547731460276      1.60180681850204      1.32412864850080
  O   6.23405173687145      0.46319175021298     -0.32875699446735
  S   5.04583653446644      2.89371359776680      3.23047126981947
  N   4.28842001531281      2.76079305448040      0.25202331636612
  H   4.58943401275660      2.87308489327284     -0.72469772461440
  H   3.41763926798379      2.21469028888629      0.17765662203355
  N   4.81486441926152     -0.01836330772015      2.38674226527921
  H   3.85381379065800     -0.12637340545252      2.03151483355885
  H   5.27993241658979     -0.89051775573742      2.10602277913638
  N   7.51947344975629      0.99314502523847      2.55089908368580
  H   8.12572295472528      0.41106252156625      1.95737052953583
  H   8.09283585104989      1.81786902957489      2.75699066115540
  N   7.05380985801840      3.36400840562807      0.83854254788445
  H   7.74870762524549      3.50134481782999      1.57983730394865
  H   7.60913848614041      3.09006678350435      0.01639131874094
  C   6.39555523009049      4.69315318942973      0.56387662179437
  H   6.16605408344259      4.74179185137155     -0.50663753294508
  H   7.12046845974254      5.48904520347623      0.77807044746197
  C   5.83398598186170      2.21452823178036      4.74640710073961
  H   6.78741271635478      2.72673240408458      4.93640535709054
  H   5.15310059704486      2.45329759134389      5.57666621659582
  C   5.97652814758443      0.66563299873281      4.59265529508592
  C   5.10097477141470      4.95031203784666      1.37677534021764
  C   5.30977491127085      4.68174158244244      2.90169221329782
  H   4.54975441522243      5.21568112215080      3.49138282111887
  H   6.29750222016899      4.99081746950446      3.27103127544348
  C   3.91269148742267      4.13606722066825      0.78161968357846
  H   3.12841760266457      3.99169740041073      1.53653204152025
  H   3.47117968579496      4.70502871431956     -0.04493912548419
  C   7.27790807748402      0.26506498264869      3.85261678535094
  H   8.13864762251777      0.44055450999744      4.51065905768262
  H   7.24840867009545     -0.80887933011723      3.63611134993044
  C   6.06157693154756      0.09873703476671      6.03678256667912
  H   6.82756850610643      0.62290855825429      6.62156032587682
  H   6.31948874781336     -0.96784749076684      6.01379893270721
  H   5.09972597511796      0.20618405475314      6.55331551600402
  C   4.75155469638089      6.45837891618214      1.24817802062487
  H   3.75947350812879      6.66424192574192      1.66863965976919
  H   4.74455271481527      6.75964582264953      0.19271876528111
  H   5.48553722019760      7.07956106629507      1.77619437075833
  C   4.73907406282257      0.02039485102428      3.90287963169565
  H   4.62719790495732     -1.00969561448136      4.26176572987958
  H   3.82288093117687      0.56179067730576      4.17337093445496
  C   6.76994730021067     -0.91550004260109     -0.47394807653603
  H   7.69522567135132     -0.87574588494012     -1.05592619218263
  H   6.96743825448734     -1.27411800151675      0.53799483712051
  H   6.01734163123249     -1.53693414355114     -0.96775138865795
  H   6.08245353003640      0.81149857324009     -1.23335504251809
