43
Coordinates from ORCA-job AXIKUN-oxo_3_5_tpss_d4_lanl2dz_631gpol_Co3.opt
  Co  5.55431161047998      1.36994320289865      1.36235923243224
  O   5.77147824356429      0.35245307667781      0.09515626796160
  S   5.08742824414401      2.73433844561465      3.09573609024492
  N   4.16862496044694      2.54637133879695      0.25518930154816
  H   4.46838421152480      2.43761829864330     -0.72307136859714
  H   3.27142531846811      2.04239054128748      0.31596611075329
  N   4.61940158621756     -0.15894684054941      2.49458431724219
  H   3.64682635008796     -0.19787675127250      2.15489867055809
  H   5.05365911991847     -1.02787223095580      2.15556810906140
  N   7.34901657345638      0.62128414410356      2.46433261677356
  H   7.70918926392086     -0.08319036757570      1.80592858996057
  H   8.06610273708243      1.35193242696396      2.50792979848105
  N   6.97035181587088      2.89419075746510      0.56604888388466
  H   7.79255727598926      2.94867814640856      1.17487180046374
  H   7.29235967232288      2.44253544425359     -0.30085621153275
  C   6.46773296070883      4.28033051283069      0.27928947821310
  H   6.20730993171091      4.33632827173631     -0.78326734908158
  H   7.29076878079278      4.98464275503382      0.46007382855665
  C   5.85085559117633      2.08180134915756      4.64728317041186
  H   6.83304634042437      2.55655079096571      4.78411694391382
  H   5.19005486510043      2.41845499514501      5.45939631838738
  C   5.91882273263963      0.52894505463793      4.60524160134482
  C   5.23926324903338      4.71740809441191      1.12673413982913
  C   5.46358591842348      4.48681999607485      2.64782105758721
  H   4.76367201103438      5.09484483199610      3.23941902503962
  H   6.48588701788577      4.72146399437194      2.97777829339223
  C   3.95913742179544      3.99703189814967      0.60070250841537
  H   3.15991486819336      4.05024148278760      1.35136129241862
  H   3.61538669279517      4.50767899833257     -0.30774539873074
  C   7.16535528648561      0.01776993468741      3.82741178069667
  H   8.06484032099073      0.23248206573621      4.41969364617559
  H   7.09343000447856     -1.06938969355192      3.71287603818700
  C   6.03866190104318      0.05558693160161      6.07941601186117
  H   6.85444377652515      0.57627405217293      6.59580549720260
  H   6.24401800662402     -1.02211727669391      6.11579666567057
  H   5.10740084533065      0.24391540470197      6.62767157409407
  C   5.04059164759868      6.24649502630770      0.94037142188077
  H   4.09080728339999      6.57340789525166      1.38093371083372
  H   5.02774892614965      6.50014779063470     -0.12751807126292
  H   5.85341775521533      6.80944634241256      1.41540000908613
  C   4.62772819146151     -0.10221618231249      3.99980996119519
  H   4.52756470372056     -1.13082983114897      4.36932264859457
  H   3.74423598576699      0.46653488180855      4.31776198685170
