48
Coordinates from ORCA-job AXIKUN-CH3OH_3_3_tpss_d4_lanl2dz_631gpol_Co3.opt
  Co  5.74604173819211      1.63039361627541      1.53804820764719
  O   6.13958244570029      0.36554107827467     -0.19809739121434
  S   4.90699327712173      3.00266355680588      3.43327958521433
  N   4.23833292463698      2.54931134502339      0.55709234186756
  H   4.49491611103370      2.49138906865831     -0.43854785542840
  H   3.35784317676038      2.02406719864629      0.63808716936266
  N   4.58189043545719      0.19918281207548      2.44932152359282
  H   3.60554927149054      0.23832884499204      2.12947856765304
  H   4.93806957012323     -0.70483112743860      2.10911185730829
  N   7.30737938361108      0.85362334015376      2.54847970890722
  H   7.77959489788386      0.19239779177592      1.91684387917980
  H   7.99354185290111      1.59895752832719      2.71328012146515
  N   6.97969758726568      3.11066648469813      0.85041375313235
  H   7.71624579346645      3.27912843612239      1.54527910516618
  H   7.46996653492763      2.73888923918263      0.02473246950710
  C   6.38089106749435      4.45693195683171      0.48668230717325
  H   6.09455071471554      4.42112537064804     -0.57075500881845
  H   7.17454807770797      5.20814132098543      0.58915222546363
  C   5.91066806047103      2.25942811576595      4.79382716283747
  H   6.93619745714569      2.64938587900025      4.79089714129557
  H   5.43188932040941      2.57328480450587      5.72951830852530
  C   5.85933169124753      0.69684792076766      4.65707304728816
  C   5.17005779122161      4.83681857792394      1.35928989694521
  C   5.48868049762358      4.67047783470184      2.88741301222434
  H   4.91356469586334      5.39606064397596      3.47548130823429
  H   6.55178660949205      4.81459995336327      3.11707544974033
  C   3.93426148791062      4.00986218260428      0.89936523663541
  H   3.14665048382200      4.00755822709906      1.66030449488247
  H   3.52302387909663      4.46322832835438     -0.01112164325202
  C   7.07328031089720      0.15552387962253      3.87839709404512
  H   7.98830579325886      0.27565059387719      4.47195245185894
  H   6.94670100699585     -0.91380116496710      3.67509870411130
  C   5.91645148261429      0.10543973669218      6.09078843789123
  H   6.75496518440578      0.53574992695856      6.65197602537375
  H   6.04480643705049     -0.98421811886967      6.06184533115879
  H   4.99098806825859      0.32733601411286      6.63655449337123
  C   4.85123312772344      6.33489563750588      1.11126162545584
  H   3.90315276558498      6.61069667728549      1.58925717724738
  H   4.76911319739998      6.54629182021027      0.03730349002913
  H   5.64124627772619      6.97191688159738      1.52750134638120
  C   4.55832234480234      0.17375743955357      3.98111411269867
  H   4.40574010734130     -0.87139468036848      4.27634703124963
  H   3.68165072312729      0.74671480101004      4.30169650043897
  C   7.37656808434821     -0.12071296739384     -0.86123817352263
  H   7.33653014923704      0.13294703078145     -1.92488091647652
  H   8.21048631717875      0.39816556857613     -0.38114531287185
  H   7.46192612795844     -1.20308628281306     -0.72290725155359
  H   5.38534565929739     -0.05004312347201     -0.66964814942263
