48
Coordinates from ORCA-job ANUMOO-OH_0_5_tpss_d4_lanl2dz_631gpol_Co2.opt
  Co  1.38352123546844      9.50473690103611      6.26614489341434
  N   -0.18378943277715      9.80280724262145      4.88943472667917
  N   -0.21858332786068     10.55454858726923      3.94000774598152
  N   -0.27000681833047     11.27043682386789      3.00493872746890
  N   2.91730700401796      9.15697513671015      7.52367371415883
  N   2.65345733522220      7.83018584499647      9.49386392028076
  C   -0.66850302998702      7.30120737729604      6.59266046568658
  H   -1.27848280213296      8.19063713925304      6.45095661694956
  N   2.76036351980827      8.48091239671456      8.52600970509745
  O   0.33641025605267     10.30202070748551      7.57951642372484
  C   -1.24410671547529      6.04380445378063      6.86332381685124
  C   -0.37058704906300      4.94729193671864      7.00704041921377
  H   -0.77037735617004      3.95557922378427      7.21789653643284
  N   0.65566064328187      7.47906109721752      6.47456208600549
  C   1.00395991359986      5.14715458824923      6.87590613169871
  H   1.69716969766781      4.31651849807609      6.98794840943596
  N   -2.63014436294325      5.89549780786465      6.91612919540546
  H   -3.14371734320872      6.74974691387243      7.12036466535759
  H   -2.95990710948696      5.11734626047952      7.48207413872186
  C   1.48974723888672      6.42865236861115      6.60958767589380
  H   2.54896961400754      6.64561459507750      6.50431847248889
  N   2.59786214588942      8.63461502642589      4.61230430779833
  C   3.93161409522387      8.77154357441367      4.66876321244397
  H   4.31373630025729      9.24189318877456      5.57421274434500
  N   6.16811226440011      8.44084925267568      3.76657524174571
  H   6.48578607680978      9.14299994020022      4.43034006004178
  H   6.68967472821650      8.47858589708908      2.89467709678194
  C   4.78530020993834      8.33246984059067      3.63620034762186
  N   2.37996115566565     11.35757506682555      5.69685695411924
  C   4.18455092502571      7.72568542140129      2.51403124389236
  H   4.80305147593707      7.37008073785055      1.69010895520445
  N   2.30584357928594     13.45444557354310      2.69620887933518
  H   2.10220811126476     14.43921924051826      2.53549464458327
  H   1.60987747349584     12.86396803497206      2.23545613096495
  C   2.79661955822075      7.58242249773118      2.47400638134136
  H   2.31466996520380      7.11798507032152      1.61632105875719
  C   2.02465749717960      8.04816096583093      3.54164277037320
  H   0.94023105419546      7.97937745230132      3.56834177299326
  C   2.34381367030345     11.76767499119716      4.42245562032630
  H   2.18040856887829     11.00238241131429      3.66982796823543
  C   2.45571185038273     13.11986225450867      4.04359200634280
  C   2.74667062878020     14.04703506830984      5.06102323159658
  H   2.86447818957300     15.10425737918789      4.82281328537904
  C   2.85585789318047     13.59828184911382      6.38225456591960
  H   3.07598197499951     14.29965170777506      7.18440070710644
  C   2.63515098931103     12.25188434051829      6.67821080770490
  H   2.63958841990753     11.85151890586810      7.68755082885573
  H   -0.43940991210407     10.64718840975858      7.08502068924220
