48
Coordinates from ORCA-job ANUMOO-OH_0_3_tpss_d4_lanl2dz_631gpol_Co2.opt
  Co  1.48500821706525      9.38326116987395      6.31995441369911
  N   -0.18886019171212      9.84433976371075      5.29260949284010
  N   -0.16920644530990     10.49876462800650      4.26665767728517
  N   -0.20362308737302     11.11650296624437      3.26925487803829
  N   3.06796143448004      8.93838264114646      7.39711581897089
  N   3.21324566923009      9.77438358591234      9.63010164574494
  C   -0.66152254471391      7.08273806017911      6.29766066303360
  H   -1.23569026487587      7.92375009353561      5.90811375834812
  N   3.10987045807422      9.37822097713995      8.53736300226011
  O   0.70630380264075     10.09560837329935      7.77801097931310
  C   -1.24789196246384      5.82251412830622      6.53356330323075
  C   -0.41146822217036      4.79954792348213      7.02229276743473
  H   -0.81856431180533      3.80726998236945      7.21733543443555
  N   0.63661312418363      7.33240225714834      6.52203299705408
  C   0.93777363773598      5.07464012907880      7.25241397482491
  H   1.60025324154454      4.30112857574385      7.63581710788375
  N   -2.59070357333647      5.59595944705453      6.22166716668788
  H   -3.16755891969362      6.43412510533375      6.20148416733981
  H   -3.03601763966156      4.85241200427438      6.75451169623314
  C   1.43588446796973      6.35465226547099      6.99459165806822
  H   2.46874598027173      6.64133802797832      7.17571063417465
  N   2.48299724246765      8.61834703598952      4.70324936967770
  C   3.81801799567584      8.75156650849101      4.63516984471191
  H   4.28369342417674      9.18009512255619      5.52128755412582
  N   5.94968968374044      8.45181283690251      3.50980559693891
  H   6.33459751395030      9.12051420880833      4.17229198439648
  H   6.38826561032321      8.52313702539675      2.59549574208858
  C   4.56147980986629      8.34880064085535      3.50837018030718
  N   2.38087114313070     11.35959791316525      5.73106355263955
  C   3.85238906921506      7.78805418952581      2.42680384765129
  H   4.38520284754196      7.46394651934474      1.53314565645033
  N   2.70154331536668     13.44591225903723      2.72591731524799
  H   2.51575457801898     14.43052080951260      2.54335398329866
  H   2.08631506337335     12.86037520861307      2.16080974367732
  C   2.46684970966775      7.64645743182679      2.51946209396729
  H   1.89929355341929      7.21479843353161      1.69830050030411
  C   1.80323609223961      8.07002722996722      3.67194291751122
  H   0.72862672311393      7.98989013071863      3.80147249005083
  C   2.47796512218996     11.76273380432528      4.45670790197877
  H   2.36979685221644     10.99652715777425      3.69302462874198
  C   2.66532088253599     13.10827063603777      4.08344982080187
  C   2.85547039186585     14.04179467752372      5.11762651607981
  H   3.02483986330858     15.09301739259426      4.88368460565488
  C   2.80206170515102     13.60552606822145      6.44536467186093
  H   2.94133241882769     14.31018970643276      7.26273790485353
  C   2.53556646082831     12.26356845794807      6.72494663690023
  H   2.41601802962587     11.88349912013062      7.73506962942741
  H   -0.15737797191747     10.41142736947963      7.42623207375425
