46
Coordinates from ORCA-job ANUMOO_0_4_tpss_d4_lanl2dz_631gpol_Co2.opt
  Co  1.36486149128713      9.37585499450494      5.94918434304272
  N   -0.54756141914947      9.67673102519477      5.48697758571451
  N   -0.97971775140108     10.22554945238570      4.49075681761238
  N   -1.42235123361274     10.74205891717071      3.53400483627518
  N   3.07169947394271      9.39385314204806      6.97972726508824
  N   3.39398166285060      8.85202715233111      9.28658691572308
  C   -0.43273385171886      7.03474425664762      6.78700784688554
  H   -1.15070368343487      7.78679690933191      6.45964095173419
  N   3.20566032325955      9.11759275556567      8.16198193862668
  C   -0.83824706517717      5.77795207822640      7.27974976584361
  C   0.16950554066714      4.86984271618017      7.65895147737341
  H   -0.09581935508498      3.88548154631018      8.04438009980410
  N   0.85840670185100      7.39311587807763      6.66949819333756
  C   1.50617583982039      5.24864529376521      7.52888200080250
  H   2.30384244937836      4.56791289289598      7.81828133814274
  N   -2.19096457632916      5.43951276764614      7.31744413790108
  H   -2.83021483639603      6.23093571884833      7.32337432649059
  H   -2.44649454879693      4.74374756520155      8.01383382629082
  C   1.82001888563964      6.51508679854504      7.03307532931222
  H   2.84363153094056      6.86062791387452      6.92775167200917
  N   2.30745912227343      8.88304890041199      4.11932412242501
  C   3.51552559355947      8.29063413653033      4.15652485258587
  H   3.93587724788101      8.16277273105600      5.15405707093005
  N   5.42655877777106      7.21753074136439      3.09893684015853
  H   5.92668753345333      7.35075807048531      3.97457046237705
  H   6.04128031210246      7.29530150331200      2.29289346424327
  C   4.21074029335564      7.89237024871995      2.99767995164165
  N   1.77401741798670     11.49866259854931      5.49523384289728
  C   3.59800981811356      8.14602101010247      1.75388299455730
  H   4.09573740802920      7.85460826856557      0.82898442718405
  N   4.74087284132115     13.43179494020061      4.48603658189900
  H   4.87262858746740     14.25935751356255      3.90946781074039
  H   5.27518076173480     12.64166498987447      4.13269183932308
  C   2.34972444619536      8.76911435513229      1.72710550380821
  H   1.85888433804660      8.98104998085164      0.77972729521370
  C   1.72384043447330      9.12648368821820      2.92460816500880
  H   0.75850895853905      9.62369625888658      2.93987699321580
  C   3.02165752883825     11.82416015792487      5.11976774189280
  H   3.73497580652306     11.00216554760847      5.09334817992281
  C   3.41297672295327     13.14095702779483      4.81018406018776
  C   2.43468605498926     14.14996809070870      4.91057377202224
  H   2.69080318313406     15.18492306481019      4.68391593041895
  C   1.14508551292381     13.80589205301364      5.31559040872366
  H   0.37241859273902     14.56630808695807      5.40622291009764
  C   0.84492656090603     12.47123159653332      5.60072417131348
  H   -0.14283943384616     12.15315466407215      5.92077993920109
