31
Coordinates from ORCA-job BUKFAR-OH_0_1_tpss_d4_lanl2dz_631gpol_Co2.opt
  Co  5.94861256841529      1.60099259618746      8.63927677146171
  Cl  5.18134552781243      3.73768559864237      8.04759250451066
  Cl  7.97236097399852      2.29673880607523      9.37541920666741
  N   4.95744637214181      1.76840337410285     10.25659949084171
  C   5.40100295716780      2.26250324958136     11.42597939389589
  H   6.43298373472302      2.60297523076874     11.40815867213885
  C   4.58122952615230      2.32664787402803     12.55167781959057
  H   4.96863361039521      2.73564033827371     13.48039368089034
  C   3.26793330060774      1.85288325059711     12.44947431761738
  H   2.60195777924302      1.87587502325296     13.30971240747807
  C   2.80033103089706      1.34400140213851     11.23677964672019
  H   1.78640763627527      0.96496039678428     11.15435737096921
  C   3.67721099354783      1.32969364994252     10.14260167594176
  N   3.32827603950264      0.87328052494000      8.86782126252988
  C   1.99440702312976      0.50160561571669      8.42241137761763
  H   1.71753927512071      1.12534543229267      7.56119162269759
  H   1.28198522216784      0.68116458693397      9.22764424044029
  H   1.96600627414889     -0.55980692796660      8.14007739877632
  N   4.33804285752802      0.93908328305989      7.97082798647395
  C   4.29663198969511      0.56352027019877      6.71708245271702
  H   3.41522513057991      0.14931032400902      6.23614974976371
  C   5.55314183095961      0.79823285876449      6.04762314284211
  N   6.54911973388764      1.33997070683163      6.85687501078818
  C   7.61954878031117      1.53913434307293      6.11835116338782
  H   8.54959157190978      1.96223441076686      6.46981916452876
  N   7.35686466175405      1.13633011361237      4.83667240364775
  H   8.00831255446197      1.18582688853656      4.06164051781308
  C   6.05539648567674      0.66532692839863      4.76785981252107
  H   5.62479529135518      0.29911152923144      3.84731457110064
  O   6.35289053617807     -0.17160070318224      9.07059648304171
  H   7.26104873025532     -0.07757097559227      9.43296868058829
