31
Coordinates from ORCA-job BUKFAR-OH_0_3_tpss_d4_lanl2dz_631gpol_Co2.opt
  Co  6.18783492360676      1.63158312989245      8.78558567935905
  Cl  5.43606859906917      3.71382625066667      8.17146706133253
  Cl  8.26407367164472      2.37936069156311      9.48798803037448
  N   4.89997953262827      1.79040486657265     10.41971604350351
  C   5.25508084597445      2.27336810155644     11.62066883772225
  H   6.28130049796497      2.63102544406645     11.67940406756325
  C   4.36350574214384      2.31227426882754     12.69238603305226
  H   4.67346515817925      2.71405697470920     13.65308059572379
  C   3.07095187936722      1.81001525316125     12.48891263501439
  H   2.34667691704550      1.80459035366555     13.30140472147489
  C   2.69886850450728      1.30377292400260     11.24243760849474
  H   1.70420802642685      0.89356260356458     11.09676797004626
  C   3.65395074526291      1.32661123362195     10.20968845275137
  N   3.39010570176364      0.86118841703778      8.90656394843169
  C   2.05838491814577      0.57384244595882      8.39054181874239
  H   1.86213262312541      1.22591733742418      7.52702450706798
  H   1.31449833566521      0.78073365647837      9.15951978110869
  H   1.98117696008022     -0.47826730959416      8.08274035793504
  N   4.43444840625040      0.91002584291717      8.05036738289077
  C   4.37638240345514      0.57617268668390      6.79151993015385
  H   3.47662238198112      0.20135681087048      6.30490642802777
  C   5.59663448777388      0.78520896174928      6.03966624589582
  N   6.69590968006943      1.31616019640078      6.70168332621355
  C   7.65224052836973      1.46470591839293      5.81242965590752
  H   8.63521418789981      1.86969453628502      6.01100583337104
  N   7.22125669528650      1.04404836146909      4.58030055069831
  H   7.76033551799277      1.06357058704823      3.72092406840882
  C   5.91356600452484      0.60837841412239      4.70379640406099
  H   5.35176986584005      0.23292852758018      3.85994430696128
  O   6.65730123019182     -0.02283826465401      9.24969252936633
  H   7.63233502776246      0.05222077795896      9.38881518834430
