29
Coordinates from ORCA-job BUKFAR_0_4_tpss_d4_lanl2dz_631gpol_Co2.opt
  Co  6.01452500623711      2.27960094884833      8.60881833055068
  Cl  4.62134121262172      3.98738674381112      7.81646246419346
  Cl  8.11256733344214      2.76167573165071      9.45788266653995
  N   4.95250731039531      1.79460088578100     10.34775527396722
  C   5.36501094362548      2.17423094158555     11.57554043765798
  H   6.39669991115280      2.51918143465298     11.61597099972338
  C   4.52981201666586      2.13417558204670     12.69016784048764
  H   4.89782443134868      2.45073019225486     13.66210701704756
  C   3.21739711959821      1.67253050342245     12.51640055840623
  H   2.53478699465757      1.61450297483290     13.36223033016701
  C   2.77878459573351      1.27029766057403     11.25511028464268
  H   1.77350611679199      0.88242424738861     11.12067629233352
  C   3.68058877062188      1.35695748570827     10.17978001436335
  N   3.34577846299876      0.95853944631927      8.87756498260992
  C   1.98896261622677      0.70188351915419      8.40760978487501
  H   1.84694999931955      1.25287113496841      7.46898589254918
  H   1.27316477425258      1.07889689968430      9.13990666940155
  H   1.81913362801140     -0.37127972435012      8.24057260827302
  N   4.37592850301796      0.99369836632812      8.01482613036992
  C   4.35568378043621      0.55505448931523      6.78905693445232
  H   3.49274392317645      0.10677232191194      6.29600088151649
  C   5.62425041390892      0.74191909536162      6.11427926179821
  N   6.64175037710177      1.33313004303062      6.85951065390428
  C   7.69984873747591      1.42900670660719      6.07572769862466
  H   8.65013801014320      1.85902431468796      6.36234038884382
  N   7.41265840891523      0.91384361320805      4.84342559056865
  H   8.04903501234955      0.87491334591825      4.05413918690769
  C   6.09840849105912      0.47167137643261      4.84461536961176
  H   5.64231309871423      0.03015971886481      3.96993545561260
