31
Coordinates from ORCA-job BUKFAR-OH_0_5_tpss_d4_lanl2dz_631gpol_Co2.opt
  Co  6.33927950930954      1.68890696618286      8.80779638856268
  Cl  5.04980616660893      3.60904249479527      8.00099376613009
  Cl  8.15105085280178      2.89228473789181      9.56239341454447
  N   4.96593731089714      1.79340071974805     10.43840542349336
  C   5.28278887665517      2.31352172009838     11.63706492612019
  H   6.29322608954507      2.71291919907890     11.70260018952124
  C   4.37644982469985      2.34638267885277     12.69648693988871
  H   4.66073848090647      2.78435634100933     13.64930151951008
  C   3.10784669718884      1.78787120351743     12.49388422360832
  H   2.37591423983304      1.76905496841084     13.29927111125957
  C   2.77538775862699      1.23714923936883     11.25526991188838
  H   1.80591964088283      0.77072908921921     11.10686445045575
  C   3.73612363666597      1.27916171788633     10.22889652366435
  N   3.47267954667402      0.75629418776722      8.94047374893471
  C   2.12291841036445      0.65517190346904      8.38700203668935
  H   2.03840590192664      1.35642254513691      7.54399699270264
  H   1.39209592593955      0.93077160130833      9.14707921598598
  H   1.92182509461169     -0.36775687584916      8.04208603083989
  N   4.52193146967324      0.77248731414560      8.08922181705420
  C   4.45937251895702      0.47980499958628      6.81993207558376
  H   3.55474823136988      0.14931692771117      6.30859696228474
  C   5.67538949609371      0.74388054882972      6.07525334320076
  N   6.74675035851898      1.34529869359853      6.73116212259777
  C   7.69027303481068      1.54517577852378      5.83682160472711
  H   8.64761081038012      2.01000527399274      6.02861462619484
  N   7.27907813142128      1.09634218221299      4.60958398765546
  H   7.81158260855802      1.14927722208819      3.74766423767770
  C   6.00109428148537      0.58360474512983      4.73951300043736
  H   5.45776323006686      0.17701937494448      3.89817442154720
  O   6.89199339351219     -0.01472939874372      9.27817332307827
  H   6.24029847101450     -0.70366809991198      9.02837166416073
