44
Coordinates from ORCA-job ABASEE-oxo_1_5_tpss_d4_lanl2dz_631gpol_Co3.opt
  Co  1.98205785298357     10.53568752443371      3.01303091377736
  O   -2.42369861966985     10.06415558907480      5.23066999987557
  N   3.81426109235894     10.63243773319572      1.98490560750621
  N   2.28320266350305      8.58965741721945      2.50030092960089
  N   0.17251524894761      9.61610929292308      4.06065599548158
  N   1.77839441606470     12.36564990744490      3.63196281653358
  N   2.26321343907066     12.70699215056898      4.70724824761572
  N   2.68532077419003     13.09259173529860      5.72047561557850
  N   2.94496357988527     10.11751405788205      4.67279405845952
  N   3.96009682244607      9.43458446943365      4.61074502705663
  N   4.92071278229275      8.77808805748619      4.58050080579026
  O   1.08846924792254     10.83576671988463      1.65045020443778
  C   4.51411307771750     11.74731454696216      1.73339916890341
  H   4.08604953994669     12.67565335234596      2.10174694433321
  C   5.72389781220368     11.70879809736064      1.02803336983435
  H   6.26893944277964     12.63002056270648      0.84015833750438
  C   6.20280900066914     10.47401293689509      0.58043820863301
  H   7.13986434079487     10.40985137217068      0.03248083425805
  C   5.46161836729458      9.31477398446544      0.84195867213722
  H   5.81345817572038      8.34545492527405      0.50061727382109
  C   4.25955002751036      9.42760760891534      1.55008369048374
  C   3.37205709348195      8.27853470188098      1.87197098210825
  C   3.78040224690025      6.89435901467932      1.44630966739152
  H   3.05675953043498      6.13411719997568      1.74824283631973
  H   4.75489635640682      6.64457020990265      1.88598336374737
  H   3.88122861154951      6.85412792867593      0.35300270435602
  C   1.22632868315754      7.66937409642879      2.90677815194898
  H   1.60131572512438      6.65358899953642      3.08202902694864
  H   0.49016126418486      7.62523355237529      2.09198240290764
  C   0.58925906975410      8.19406150524171      4.20032377221721
  H   -0.26098008612058      7.55066205578180      4.46809195913387
  H   1.32219247926829      8.15856139955241      5.01253837971464
  C   -1.04887718588630      9.81893169968924      3.23157710063957
  H   -0.94570339877017      9.28092570987091      2.28381869843174
  H   -1.11567487545097     10.88890247600677      3.01184785314728
  C   -2.31567275320889      9.36684135222613      3.99389722103612
  H   -3.20513987012661      9.62318534754482      3.41014487014220
  H   -2.30511001564557      8.27641010257696      4.16843247744414
  C   -1.30210660506192      9.78848434464032      6.06890397758718
  H   -1.24402588213098      8.71042804081466      6.29700331252410
  H   -1.46261673585251     10.34284271403370      6.99865774645400
  C   -0.01655373297419     10.28704498496886      5.37786191858904
  H   -0.12515828372758     11.35842882227205      5.18020440001855
  H   0.87540928006134     10.11666169938258      5.99024045556997
