49
Coordinates from ORCA-job ABASEE-CH3OH_1_3_tpss_d4_lanl2dz_631gpol_Co3.opt
  Co  2.13254425113363     10.25856113576132      3.22473167707580
  O   -2.27170002403766     10.02885396848577      5.28197582181438
  N   3.77622047284342     10.45844535145728      2.08459311940488
  N   2.38265066092104      8.42778256688439      2.71658652604685
  N   0.38441517953978      9.56717663363838      4.17674793137278
  N   1.88284847617159     12.12604902667256      3.51528992112275
  N   2.07053370901677     12.61474393160032      4.62930928725377
  N   2.24059190837355     13.12925056434003      5.65443168261139
  N   3.19389216412241     10.00930018645062      4.90581064462192
  N   4.16144670150464      9.27491057876460      4.76938450340211
  N   5.07876641946204      8.56525459343550      4.61196611208662
  O   0.93804593155262     10.87295132466780      1.40435950782566
  C   4.45069617484767     11.59601118562940      1.84197673777668
  H   3.97138671957315     12.50614173712325      2.19450329052353
  C   5.68529828028910     11.59099254486912      1.18422377525417
  H   6.20194563449523     12.52973121646388      1.00255331504782
  C   6.23418663805116     10.36810270390582      0.77784168462397
  H   7.19592111515778     10.33504523979084      0.27147884280704
  C   5.53830290642255      9.18401793080715      1.04201511564398
  H   5.95117189320876      8.22057509438073      0.75599977082141
  C   4.30561261665869      9.25746148728921      1.70238895017813
  C   3.46963601802359      8.10101842426076      2.06796414179189
  C   3.88891684644685      6.70470977989944      1.70507416321913
  H   3.12094750033445      5.96494231304587      1.94316785152891
  H   4.80803455011139      6.44356549274810      2.24720059593562
  H   4.10189314012527      6.64147808497547      0.62957099114318
  C   1.38193960300023      7.48888616566588      3.24281087055349
  H   1.82497551987434      6.52374550962773      3.51566133856992
  H   0.62902577709239      7.31199584516734      2.46157059753383
  C   0.76300764886245      8.14325969656459      4.47779348935100
  H   -0.10032330209537      7.55967063760486      4.82086936802859
  H   1.50320405291662      8.18446523818783      5.28305086767227
  C   -0.85146242167978      9.67087659422639      3.32811617454436
  H   -0.71507828371006      9.07376522820481      2.42083513375784
  H   -0.93686775606850     10.72014972120505      3.03302533695549
  C   -2.11337388238613      9.24979895159613      4.10030358396465
  H   -2.99536296538043      9.44114950749239      3.47995753132892
  H   -2.09515046245441      8.17299093442194      4.34885594482346
  C   -1.14808422907298      9.85947370512037      6.14906453825786
  H   -1.07152025815415      8.80925821264099      6.48214935805247
  H   -1.33480735805706     10.48770575661481      7.02572445016514
  C   0.13208762676132     10.33113762145401      5.44812261530983
  H   -0.00343224525911     11.37722657398124      5.15986383981265
  H   1.02004833078341     10.23938542238294      6.08272779097022
  C   1.35873807451137     10.72802870132799      0.02944954529373
  H   0.62558261998063     11.19892616148265     -0.63626228441365
  H   2.35240693581835     11.16315878989143     -0.13658873324066
  H   1.39180996346884      9.65308773683585     -0.16786133938200
  H   0.96117112689840     11.82295419095456      1.66272402115601
