44
Coordinates from ORCA-job ABASEE-oxo_1_1_tpss_d4_lanl2dz_631gpol_Co3.opt
  Co  1.96803926621608     10.30895519240937      3.02873041961084
  O   -2.32539047460132     10.22352092544159      5.16025565866825
  N   3.66196670022923     10.57428473059161      2.07428664952472
  N   2.28353245311524      8.47474613697104      2.53420065287784
  N   0.28561036877941      9.65556799813143      4.00342240481514
  N   1.80751766048448     12.17254707099316      3.59960645789618
  N   2.34941715082035     12.45066501017849      4.67070289712599
  N   2.82580303495894     12.79097778020379      5.67456394526155
  N   2.95617804236764      9.88968120116038      4.68875755041483
  N   4.00822586384922      9.27193406571800      4.60240815808567
  N   5.00368399966835      8.66967647699456      4.53653793510331
  O   1.11333435488636     10.59688765669543      1.61890606820775
  C   4.25052624791152     11.75269809900915      1.83053623338315
  H   3.73376055035281     12.62557818615100      2.22054537618564
  C   5.44971990556035     11.82004166223236      1.10874229035252
  H   5.91156582646612     12.78732041170803      0.93061426895917
  C   6.02591295322087     10.63844314041846      0.63301674479455
  H   6.95659277850995     10.66503043860305      0.07146279449673
  C   5.39027153248362      9.41423599692025      0.87931955155970
  H   5.81185200138533      8.48299093767437      0.51125840428892
  C   4.19639271882587      9.40834016299918      1.60520957643044
  C   3.38979780345923      8.20586731264595      1.91061632637165
  C   3.84735230122323      6.83910765155017      1.49047542682983
  H   3.17338453323485      6.05447716027652      1.84318276683440
  H   4.85201505435852      6.64530088101728      1.88728876023734
  H   3.89684674637543      6.78300450619032      0.39388217464737
  C   1.20287723156981      7.58012886120643      2.94490630405741
  H   1.55967721150972      6.56433674835600      3.15561574235548
  H   0.48312065768874      7.53105403139440      2.11613975632400
  C   0.57300395277935      8.18688330307039      4.20286004111521
  H   -0.34589469366248      7.64882551935348      4.46348687887364
  H   1.27374258370278      8.11796738610421      5.04007407900724
  C   -0.94178420007076      9.90783115114165      3.16931899309274
  H   -0.85580040091830      9.35749406981841      2.22701532395380
  H   -0.94475400172703     10.97943423820967      2.94763681221556
  C   -2.22838438645126      9.52467577135384      3.92641129685075
  H   -3.09200042524574      9.82575277670909      3.32460591827023
  H   -2.28763111326683      8.43342464925398      4.09306294561802
  C   -1.21518321993382      9.91079988189029      5.99841309300472
  H   -1.20568230898593      8.83503231014879      6.24813283292170
  H   -1.34870438498602     10.48132282608017      6.92282723849787
  C   0.09284379333167     10.35285502344465      5.32298417649892
  H   0.02594676466823     11.42031865585518      5.09658158887672
  H   0.97289756585610     10.15898200372402      5.94389748550239
