52
Coordinates from ORCA-job ASUKAA-CH3OH_1_4_tpss_d4_lanl2dz_631gpol_Co2.opt
  Co  8.17336349477766      5.22680846104214      8.28506765758488
  Cl  7.23089567521437      6.43670527358148     10.11646622297705
  N   9.81428148837950      4.42931456459417      9.35747301616100
  N   9.62531222436890      6.75413365302455      8.02161225260350
  N   6.78664332892261      3.62702277991470      8.41316928925632
  N   8.70616211040992      4.02210666206323      6.57702079609007
  O   6.74145636161405      6.43457713485131      7.14262220228822
  C   10.85336908478873      5.30268454738126      9.47270681945052
  C   9.87591104635098      3.26674471063478     10.01295724070576
  C   10.97532754383583      2.90678388281716     10.81811023688287
  C   12.03965853645361      3.78878836098548     10.94434682032267
  C   12.00243563471037      5.03015898126237     10.26332392954292
  C   13.04742643662716      6.01344358401431     10.33844316246664
  C   12.94619548119533      7.20456491725711      9.66676771632333
  C   11.79388922226086      7.50704871236923      8.86311657848720
  C   11.62403635398851      8.72252963024964      8.15549358636291
  C   10.46980714684915      8.92520482668189      7.41157753468317
  C   9.48771764741480      7.91452091781957      7.37077343390734
  C   10.75073506375233      6.54753401870011      8.76248211516191
  C   6.89821700552394      2.70127882140498      7.41821369861042
  C   5.83863172995936      3.46450361128132      9.34573720375834
  C   4.95161694561382      2.36714302749402      9.33085677826145
  C   5.05351468174777      1.41940204636499      8.32187325000464
  C   6.04840596558478      1.56675147317777      7.32314070777025
  C   6.23648848564457      0.64297782390312      6.23851437625109
  C   7.21888585727274      0.84161454137089      5.30203459544208
  C   8.09173698028889      1.98106223742777      5.37421121128973
  C   9.12313591418745      2.24547517836441      4.43912861682292
  C   9.91387678134256      3.37608250898740      4.59411056380576
  C   9.67313393448751      4.24204942157920      5.68116977542421
  C   7.92667901854158      2.91228536610410      6.43585968694726
  H   9.01883050259986      2.60679963216053      9.89876016195129
  H   10.97347134865081      1.94936014550425     11.33272509782482
  H   12.89914635798836      3.53976639875082     11.56443384702223
  H   13.92293820071132      5.79688345519850     10.94779750214494
  H   13.74025291956670      7.94568602668770      9.73716528953222
  H   12.39598568308178      9.48853290401096      8.20683846530739
  H   10.30908837936901      9.85130292034859      6.86561886721589
  H   8.56218515360068      8.03289878583093      6.81236803384457
  H   5.80194380300112      4.24063075640380     10.10896477579888
  H   4.19889460067370      2.28006126988572     10.11023717634754
  H   4.37936068691570      0.56500924368486      8.28874690092766
  H   5.58067772900646     -0.22329423500790      6.17280626905089
  H   7.35222237920148      0.13510016976535      4.48485396690127
  H   9.28608770802502      1.56084635903166      3.60845021144866
  H   10.71230178627830      3.60411466002334      3.89259581728883
  H   10.26988805196525      5.13841479607646      5.83552063791566
  C   5.63073792727736      5.89560325289068      6.38825446597770
  H   5.02792350031474      6.71520341951484      5.97979885392061
  H   6.06775505569494      5.31735570758743      5.57003590302755
  H   5.00765076829518      5.24415022246209      7.01326238057514
  H   6.40385027567184      6.86231243248455      7.97189430032899
