52
Coordinates from ORCA-job ASUKAA-CH3OH_1_2_tpss_d4_lanl2dz_631gpol_Co2.opt
  Co  8.20357621714155      5.18820672762532      8.20446876561643
  Cl  7.34457593966305      6.42255321007804      9.95783746266988
  N   9.70302063254855      4.30254836080778      9.42036615700166
  N   9.54194477156324      6.55524215426698      8.00012267279188
  N   6.92755304924413      3.75086326605097      8.42655156528809
  N   8.70870184480670      4.22118472646300      6.58081712045284
  O   6.69847723116375      6.48278236565496      7.02570171407879
  C   10.75436145860404      5.16237196641316      9.51825243983436
  C   9.73517430476239      3.17923588432835     10.14039475359910
  C   10.81378517268968      2.85023247560903     10.98898507691604
  C   11.89171985281598      3.71901924615003     11.08943601735206
  C   11.88616263857942      4.92174759187669     10.34076048156995
  C   12.94060334714757      5.89748632624847     10.37205154372169
  C   12.86197037228850      7.04791640528050      9.62905444686913
  C   11.72118590302748      7.32091879779837      8.79799466305649
  C   11.56925446448635      8.49640404064698      8.02273245033298
  C   10.41736285930595      8.67033985924378      7.26755462869355
  C   9.41525250835891      7.68072276825289      7.28205579784474
  C   10.67035215315536      6.36796813781288      8.75046621239685
  C   7.01369356679017      2.81252690483594      7.42985773610526
  C   6.03550413434997      3.54876455612361      9.41127431953227
  C   5.19567322148706      2.41594422353786      9.43372945655741
  C   5.27178461633465      1.46543301399756      8.42332865136144
  C   6.20777523549862      1.64873826690126      7.37618153468001
  C   6.39598693877594      0.74394469872393      6.27423773933785
  C   7.33090501001189      0.99253784911782      5.29948167622930
  C   8.15931080799643      2.16732430069900      5.34321098417632
  C   9.14685603666722      2.49920548882784      4.38322620128635
  C   9.88008960242874      3.66822158155453      4.54798179766806
  C   9.63885266201894      4.50489440695391      5.65599119290547
  C   7.98396337893154      3.06881242795065      6.42256094775936
  H   8.87371290333739      2.52145449900998     10.04551188844591
  H   10.78632265945454      1.92240620825753     11.55497656190822
  H   12.73486848839643      3.48969770613382     11.73869077682235
  H   13.80647304573026      5.70935231998513     11.00421217380924
  H   13.66446865046579      7.78225680933014      9.66393229307505
  H   12.34946511536696      9.25531673799173      8.03296758017920
  H   10.26653261243607      9.56589246646487      6.67048912329806
  H   8.48515757955105      7.77988073209175      6.72914421411349
  H   6.00340347783298      4.31914106730094     10.17785365905724
  H   4.48961381786032      2.30663606754221     10.25291843639052
  H   4.62609216938688      0.58920737878860      8.42952233683458
  H   5.77874122084861     -0.15115306500466      6.22583917493726
  H   7.45985017274380      0.29653367945596      4.47277880381886
  H   9.32273395558777      1.84365933964835      3.53259373108577
  H   10.64488645223634      3.95389488614529      3.83023237575582
  H   10.19992164619979      5.42288692035487      5.80203252869802
  C   5.58216094285563      5.89430582965718      6.32510814089289
  H   4.90261572003697      6.67735286539275      5.96582994999674
  H   6.00367467169252      5.35831322573803      5.47001996947024
  H   5.03401922856028      5.19197158840380      6.96690813256632
  H   6.37999553677506      6.86494070747920      7.88128194115777
