48
Coordinates from ORCA-job ASUKAA-OH_1_1_tpss_d4_lanl2dz_631gpol_Co2.opt
  Co  8.07316648294216      5.16087351005930      8.32666913667066
  Cl  7.38970703728870      6.27463035565855     10.17182237094205
  N   9.58339946574130      4.39483914038623      9.37479430804673
  N   9.29062871054250      6.60984703791266      8.02230386724389
  N   6.84195040964309      3.68981488665244      8.61067538204651
  N   8.57904993030082      4.19548411153727      6.71997636989757
  O   6.79585898394817      5.97809789071811      7.26144548177716
  C   10.63753254404996      5.26059545917676      9.41307002378845
  C   9.67297750613282      3.25438398845146     10.06484701443886
  C   10.81877160225551      2.92696996838008     10.82020717352279
  C   11.89555419521959      3.80366790289323     10.86409975190689
  C   11.82619166947225      5.02234141902955     10.14439122785547
  C   12.85464421314787      6.02831847444721     10.11174582971551
  C   12.69323405688019      7.19413522901074      9.40221154627070
  C   11.48826111186911      7.45620995240619      8.66109348909901
  C   11.21587113529856      8.63050289505872      7.91403450059957
  C   9.99798950189784      8.75672983678564      7.25501431104223
  C   9.03917471277624      7.72362731545552      7.32960849812247
  C   10.47512902789111      6.46917166043280      8.67914337799330
  C   6.82584145441807      2.84281257424571      7.53969603342645
  C   5.97809920361653      3.47928616236056      9.61217826163224
  C   5.06303981171010      2.40494055914636      9.58274480745105
  C   5.03601050373078      1.53885664792359      8.49808684730594
  C   5.94150209514961      1.74303654421781      7.42785635265906
  C   6.02335925281853      0.92205121004244      6.24969594512375
  C   6.93631513865250      1.18654672454386      5.25875818120723
  C   7.84547727727016      2.29587767451184      5.36123667157196
  C   8.81955202147363      2.64069584951870      4.39251379830499
  C   9.63855268326019      3.74001493026698      4.61525502058494
  C   9.49096167485165      4.50219429629382      5.79241231028528
  C   7.77184325529324      3.11638196528008      6.51384472907875
  H   8.81113559596826      2.59431557918274     10.02547715313449
  H   10.84005312549208      1.98776358644250     11.36675912701211
  H   12.78239159635502      3.56615972697028     11.44863238685123
  H   13.77060432789830      5.85246658998833     10.67239079887299
  H   13.48069718510198      7.94518867559219      9.39820194194078
  H   11.95616129256848      9.42720455018189      7.86836532577701
  H   9.76378579217212      9.65106599034923      6.68354987792464
  H   8.05760076350988      7.74367352107801      6.85896201786225
  H   6.02094153354959      4.19208722382377     10.43167635804869
  H   4.38021498937644      2.27805963277001     10.41865697668405
  H   4.32854738892379      0.71248666923702      8.46164371469552
  H   5.34215899457109      0.07862117440792      6.15579695064246
  H   6.98392528126994      0.55545438756853      4.37356381197783
  H   8.91777977161414      2.04797913246181      3.48508304485815
  H   10.39415489126107      4.03176657882615      3.89062245406395
  H   10.10785522304100      5.37422238779894      5.98352566498441
  H   6.20455557778370      6.41010842051622      7.91732977505761
