53
Coordinates from ORCA-job BAKQOX-oxo_1_6_tpss_d4_lanl2dz_631gpol_Co2.opt
  Co  0.68697097638583      6.89375177289082      8.18862261726842
  Cl  2.48495641680815      7.36258152015694      6.74092886178893
  O   0.11955691791698      5.59462989005899      6.55293588090553
  N   1.48356720972088      4.98618667699342      8.72758855014806
  N   0.65709108906352      3.63736076756964      5.48814951975955
  H   1.17466388805008      2.76748572396124      5.58026937888520
  C   2.11840261802461      4.72734422533873      9.88482395689959
  H   2.18281767742221      5.55698759994158     10.58145001033598
  C   2.66794912086282      3.47329369406836     10.16932337109654
  H   3.17477663879013      3.30929420374477     11.11662263411012
  C   2.54543371697414      2.45318403468083      9.22219890642325
  H   2.94914676833919      1.46176385900425      9.41420659481781
  C   1.89150993324465      2.72469195298149      8.01593803751596
  H   1.77557637139014      1.93063803238995      7.28157024186457
  C   1.38087923847360      4.00848984010041      7.79071751740829
  C   0.67302278838039      4.46469579406928      6.55686935454086
  C   0.06473563305456      3.82771532991207      4.21137551123975
  C   -0.71891358704101      4.94915778853723      3.88345479604677
  H   -0.90002328049417      5.72342915554104      4.61881680080661
  C   -1.25611804131043      5.03835774534804      2.59532707988414
  H   -1.86371594228377      5.90359232803204      2.33783329475418
  C   -1.02880134688147      4.03526732310046      1.64408958160852
  H   -1.45676678285763      4.11878459895472      0.64748455348070
  C   -0.24983758954764      2.91990351593046      1.98386643470971
  H   -0.06603953486240      2.13333217036397      1.25521817672299
  C   0.29544921061477      2.81280360681437      3.26346062346460
  H   0.90338508278155      1.94644023820874      3.52760700803908
  O   -1.02966154660375      6.89394334685735      8.50799720335377
  O   1.35072123794574      7.51943013808839     10.04718404175751
  N   0.50145791647491      9.06311910852199      8.12780719738921
  N   1.68048824031558      9.22643998954828     11.52350042552976
  H   1.74915515336458     10.23506257163469     11.63134767148056
  C   0.07422519828471      9.75834253471143      7.06491363468035
  H   -0.16918199280026      9.17627889497723      6.18040589596670
  C   -0.03465268903867     11.15341477670377      7.09675202414328
  H   -0.38350639669342     11.68937323533287      6.21808133853908
  C   0.31430699054484     11.83077673775040      8.26970230617982
  H   0.24036818270609     12.91413216788480      8.32732352863978
  C   0.76380364216229     11.09811069437003      9.37396142671686
  H   1.03256008392824     11.61856628590401     10.29088979573196
  C   0.84880363093994      9.70458842775348      9.26463715968943
  C   1.31411044950331      8.75461810753002     10.31417527717184
  C   2.09241040081906      8.45312540418721     12.65116818158377
  C   1.52931821404762      7.19377708281867     12.91849820523055
  H   0.76295254967522      6.78605479635632     12.26705428892986
  C   1.94886164411559      6.49420309794775     14.05435178379168
  H   1.50771994321438      5.52374160743390     14.27372480587595
  C   2.90800268368388      7.04097681183779     14.91860871878399
  H   3.22417648839273      6.49015166396120     15.80176464424567
  C   3.44924767664232      8.30535155252414     14.64963885190438
  H   4.18874561944858      8.74033489563432     15.31834662695394
  C   3.04409849446447      9.01602339262012     13.51605613742007
  H   3.47139299344221      9.99429928841521     13.29725953378368
