54
Coordinates from ORCA-job BAKQOX-OH_1_1_tpss_d4_lanl2dz_631gpol_Co2.opt
  Co  1.06818892518778      6.46285789973728      8.44606104682764
  Cl  3.26205876343948      7.05198074890724      8.00764005689969
  O   0.83815403415951      5.77672866869304      6.69226047104079
  N   1.63126146760754      4.70721823462881      8.87452769234018
  N   0.43186029970817      3.80281881967929      5.61243270053560
  H   0.35522682367167      2.79485091337345      5.72150926858490
  C   2.24161954320890      4.31329994376938     10.00179443737309
  H   2.46459819478247      5.09850999145534     10.71747774660168
  C   2.57038910631786      2.96974003213095     10.21023554761102
  H   3.06320857116901      2.67438646177807     11.13245750074518
  C   2.27044320907018      2.03133612168619      9.21687247715429
  H   2.52462515728496      0.98281853369378      9.35134318692913
  C   1.66136043695944      2.45952179819669      8.03105148680926
  H   1.46430057477990      1.74825819435930      7.23214224123559
  C   1.34671577873334      3.81307603738501      7.89099042455733
  C   0.82306502326861      4.50316910271658      6.69084060448385
  C   -0.00171610213968      4.32636738310441      4.35768799679772
  C   0.50059106607584      5.53748484731539      3.85199459186300
  H   1.23954851869871      6.10301346217952      4.41004688931316
  C   0.05349926771601      5.98039208833085      2.60279320206376
  H   0.44589253732216      6.91204250570927      2.19987657477728
  C   -0.87118580562793      5.23048851767383      1.86334675491248
  H   -1.20856271502019      5.58449755019592      0.89162437636527
  C   -1.35147340024536      4.01644072489471      2.37323819501914
  H   -2.06436594830406      3.42429004491266      1.80370622603429
  C   -0.91837956236819      3.55966974599863      3.62068159269301
  H   -1.29785235920628      2.62154990962224      4.02550000716240
  O   -0.69592721679646      5.95491961407938      8.70427612577054
  O   1.24011934662552      7.15186549180736     10.21531815575488
  N   0.56027466132223      8.23578407141454      8.00408238520956
  N   1.63401596184565      9.12723049046838     11.30807030883713
  H   1.70693949532719     10.13516674454210     11.19137278673009
  C   0.06681594542992      8.64311807725544      6.82713052945548
  H   -0.09118459927937      7.86566709810802      6.08675235366722
  C   -0.21336017077220      9.99436746175382      6.59443140135378
  H   -0.61050615987780     10.30132888584613      5.63073845399512
  C   0.01826698842640     10.92666753019128      7.61096266088835
  H   -0.19591631460046     11.98106309606003      7.45489152523286
  C   0.51856402979454     10.48661829912336      8.84261603735802
  H   0.67547407780449     11.19633537135614      9.65197660116547
  C   0.78514675814428      9.12578809874308      9.00662120806638
  C   1.25444838705255      8.43033007993494     10.22522523237242
  C   2.08997938357800      8.62955749462887     12.56330389571038
  C   1.72941808299717      7.35874017304057     13.04314972031223
  H   1.08319626462915      6.71346092972556     12.45949638610371
  C   2.20027203499847      6.95380082748048     14.29638248479049
  H   1.91813937937575      5.97391104920160     14.67649897000209
  C   3.01265563050573      7.79668658932613     15.06631342431904
  H   3.37155835112192      7.46981261440708     16.03968709249924
  C   3.35462812354328      9.06669348412238     14.58183335224575
  H   3.98104782212481      9.73080926796750     15.17306943019946
  C   2.89380307841717      9.48779921795457     13.33254756056586
  H   3.16635134552258     10.47144308983120     12.94996278331669
  H   -0.82377209351041      5.95577656950185      9.67726583734653
