73
Coordinates from ORCA-job BACNOJ-CH3OH_0_4_tpss_d4_lanl2dz_631gpol_Co2.opt
  Co  -0.27230591588075      0.01947451770490     -0.17947235602053
  S   -3.03803847071910     -1.55960670396637     -0.90205657624466
  O   -0.13525465160176      1.04130752480963     -1.89468072884494
  O   -0.22785747608834     -2.90898925490171     -0.50809040235483
  O   1.95725297296092      3.83309007233646     -3.78732701451382
  O   1.65972482821988      3.03516393896372     -1.75713708762034
  O   -2.41245846800011     -0.28369632843140     -0.31653503296978
  N   0.09791095334243     -1.72147758373690     -1.15923901430028
  N   1.69169247003859      2.89851347223366     -3.01515215213594
  C   0.81423905554206     -0.73864679910869     -3.24088304612164
  C   0.67219019237674      0.64374784793115     -2.82794337010431
  C   1.47413948870255      1.57587361382176     -3.56471089267345
  C   2.11661436946369      1.25635288521288     -4.76303572665866
  H   2.68007762331672      2.03585974936589     -5.26950410622517
  C   2.09446603244059     -0.05976361647097     -5.25024281960641
  C   1.46986667697504     -1.03567762276664     -4.44670317044961
  H   1.50155835990751     -2.07765227408620     -4.76619604488830
  C   0.37649920492634     -1.85675905984159     -2.42286468624273
  C   -4.68628242947539     -1.00235982922857     -1.46308350131358
  H   -4.52287845933924     -0.31492883471059     -2.29979152914778
  H   -5.18885457121258     -0.47815009237818     -0.64186259325972
  H   -5.27366061756675     -1.86631237010892     -1.79753173578389
  C   -3.60157206252223     -2.54695986747778      0.52556130443793
  H   -2.70407209462162     -2.94076058104857      1.01561289874018
  H   -4.22404035727375     -3.37619081102769      0.16689891661284
  H   -4.16073516250222     -1.89991982451671      1.21185900096753
  C   2.76207205756967     -0.41570271502155     -6.52288900768672
  C   3.40041160753972     -1.66223464739406     -6.68893544752171
  H   3.43312777683302     -2.36452755024082     -5.85675343483563
  C   4.02503176727761     -1.99267382351140     -7.89559540627388
  H   4.51879261213017     -2.95798986314361     -7.99994247269828
  C   4.03061052783297     -1.08158036017900     -8.96023501725240
  H   4.51873624859544     -1.33841863926360     -9.89920899660338
  C   3.40431602420995      0.16310845574480     -8.80684804282267
  H   3.39590291833404      0.87581671221461     -9.63034182630271
  C   2.77421080364067      0.49148290343328     -7.60242818348993
  H   2.26320854729954      1.44856210817652     -7.50203029180107
  H   0.37465423449029     -2.86043523271857     -2.85659012278465
  H   -0.29798436172685     -2.62301704750639      0.45227318018305
  O   -0.31797093157283     -1.04411336201982      1.49129983119568
  C   -1.00959133548229     -0.74236212558612      2.54611882049050
  C   -1.43636677081361      0.60986689690561      2.86335417109371
  C   -2.08243943992785      0.87035390001461      4.08235764802915
  C   -2.36776838487387     -0.12100963323606      5.04011791627373
  C   -1.98202382009608     -1.43250621451384      4.73681244360025
  C   -1.34577406544292     -1.73492117000300      3.52921442093237
  N   -1.02734202846297     -3.13809062753207      3.31153446712913
  O   -0.96583506112698     -3.88326100040267      4.30748382680598
  O   -0.85905516814694     -3.56407056765769      2.13978577415031
  H   -2.19706388894961     -2.25270403832536      5.41569357039042
  C   -3.04929054421637      0.20512844706062      6.31360428511358
  C   -4.01958978961844      1.22640169032221      6.37943181847917
  H   -4.29640783024508      1.76306401669963      5.47251483920200
  C   -4.65479458044919      1.53556056864392      7.58641044058774
  H   -5.40540404391307      2.32454011939537      7.61351553971580
  C   -4.33840619062010      0.82607481739916      8.75265161607676
  H   -4.83347069021314      1.06630886765938      9.69220687958936
  C   -3.37890820980609     -0.19432307447179      8.70043660172005
  H   -3.11838959176501     -0.74595968756952      9.60268638735986
  C   -2.73912135024800     -0.49936384873499      7.49536519798753
  H   -1.97126960233776     -1.27176155197201      7.47156934134957
  H   -2.35422327367293      1.90316331467982      4.30173485615851
  C   -1.21739503411462      1.76415444266853      2.00763182003448
  N   -0.75892662701723      1.70144284122354      0.79450360101393
  O   1.82732882961731      0.67710778245857     -0.03064121394192
  O   -0.63714611354061      2.93144090367632      0.15690025374485
  H   -0.29807633002455      2.66287848011867     -0.73839083163687
  H   -1.47465488236618      2.74859137505078      2.40834792352860
  C   2.93495822032891     -0.19769284669084     -0.31812836105831
  H   2.94539254362315     -0.49821111288810     -1.37501837916700
  H   3.88151260121127      0.29591002841669     -0.06056226423559
  H   2.79686495509623     -1.07977428696723      0.31203415257722
  H   1.86545617375207      1.47049418701495     -0.62574085767864
