73
Coordinates from ORCA-job BACNOJ-CH3OH_0_2_tpss_d4_lanl2dz_631gpol_Co2.opt
  Co  0.16653612135990     -0.09711653977029      0.10802756042249
  S   -2.54790681499111     -1.41907906622554     -1.12759374337787
  O   0.65906315310003      0.97912777638070     -1.36070085309213
  O   0.33444249407039     -2.91972830107183     -0.18619245328299
  O   1.48787226106027      3.85411069770437     -4.18624421119186
  O   1.15635945945357      3.43920378304473     -2.05753660725343
  O   -1.98706035206807     -0.15172590668376     -0.47385602117189
  N   0.55706450984866     -1.69970759543282     -0.81600946566573
  N   1.33606440868759      3.05850358195093     -3.23793189888067
  C   1.22071476929343     -0.73082325084275     -2.95238463433176
  C   1.07296567770694      0.64688736256327     -2.54684642908050
  C   1.39567475149564      1.63133439385402     -3.53651083252977
  C   1.80192921082197      1.28140006201392     -4.82870094020227
  H   2.04226795475354      2.09033127481968     -5.51194193856461
  C   1.92981543161020     -0.05879196976868     -5.21908810063238
  C   1.63784598341326     -1.04245804163858     -4.25608788572182
  H   1.71131718223508     -2.09430058528795     -4.53298998853508
  C   0.94705448480215     -1.82892765705359     -2.05555968561370
  C   -4.12304219140691     -0.87391238127754     -1.88317400518547
  H   -3.86775367470766     -0.18258587556422     -2.69330104192101
  H   -4.72382638693212     -0.35600930723648     -1.12627123541224
  H   -4.66003282639866     -1.74094568425139     -2.28714004825564
  C   -3.28042647149138     -2.42582197011724      0.21088976840811
  H   -2.44858999199109     -2.83959893402825      0.79087296829900
  H   -3.86556754295272     -3.24198590440293     -0.23130335274682
  H   -3.90953207919220     -1.78668762733594      0.84238666295647
  C   2.35981256876312     -0.42017344225174     -6.58974513983549
  C   3.14387729400283     -1.56781519704813     -6.82664617338486
  H   3.46625055932228     -2.18082980040125     -5.98546050750612
  C   3.54392276620399     -1.90783855832841     -8.12287694754686
  H   4.15608037398445     -2.79449436381479     -8.28242727529066
  C   3.17354163796187     -1.10438638627942     -9.20968252451312
  H   3.48709487406170     -1.36764827286030    -10.21862828272133
  C   2.39747629141803      0.04127336997918     -8.98767647123709
  H   2.09779770259106      0.66903747801849     -9.82574516324302
  C   1.99232325182711      0.37805519254948     -7.69263371718985
  H   1.36482735696243      1.25421057634636     -7.53404039849207
  H   1.06899238912454     -2.84631781009639     -2.43005472657398
  H   0.04251028747394     -2.65349606114245      0.73949737253384
  O   -0.28662756208378     -1.16552740691371      1.59755977857777
  C   -1.00067927751281     -0.83964938822737      2.63383134574023
  C   -1.30323090797671      0.53331903608819      2.96292677851734
  C   -2.03385120809282      0.83981023858881      4.11912237454412
  C   -2.51287033979651     -0.14394196056389      5.00675910655278
  C   -2.21976384849585     -1.47761640122660      4.70140469423368
  C   -1.49560864078321     -1.82302147647089      3.55253100003138
  N   -1.27904995929600     -3.24457319425304      3.33655000099305
  O   -1.53691388008399     -4.02455995192998      4.27375146283198
  O   -0.86663121417579     -3.64998472193306      2.21869754886157
  H   -2.57197721356751     -2.28825904763788      5.33210739185194
  C   -3.29334928357567      0.21708085376302      6.21264780809255
  C   -4.15684162854161      1.33185385806984      6.20748928665376
  H   -4.27312569682559      1.91630822534367      5.29546356837095
  C   -4.89242060762098      1.67472383158892      7.34639176309771
  H   -5.55852427754656      2.53610045778810      7.31831480080311
  C   -4.78531960393600      0.90641329139691      8.51315559248173
  H   -5.35936191070346      1.17185957891751      9.39952983183447
  C   -3.93324485809560     -0.20638784710058      8.53078226001286
  H   -3.83537747688221     -0.80533111481901      9.43511147693344
  C   -3.19258703323975     -0.54546683692264      7.39442861360734
  H   -2.50945831899114     -1.39327068087579      7.42838185452819
  H   -2.20996676934983      1.89065561984935      4.34890010604328
  C   -0.82347927347359      1.63940363103728      2.16642262864481
  N   -0.22154256728041      1.50918898899035      1.02045798905797
  O   2.30494599723518      0.32978210915925      0.86439530474213
  O   0.24977032006035      2.71079831492600      0.49668999608121
  H   0.44539318416676      2.48711099862052     -0.46458245618963
  H   -0.96267863240520      2.65347117604444      2.54373096593340
  C   3.39280006758550     -0.24790745404643      0.11380628590050
  H   3.27760795623606     -0.07349464485131     -0.96473819789219
  H   4.35343110724982      0.15990553192335      0.45717732363634
  H   3.35917456813628     -1.32156829854476      0.31469530242958
  H   2.26972191438462      1.28878562520900      0.66061478002492
