67
Coordinates from ORCA-job BACNOJ_0_2_tpss_d4_lanl2dz_631gpol_Co2.opt
  Co  0.02545144014152      0.00910656685523     -0.02529787444251
  S   -2.53301973120473     -1.47016375578749     -1.22902544222543
  O   0.61751269643675      1.08070901513230     -1.43838596696853
  O   0.32689190128251     -2.81113877850105     -0.26899217855324
  O   1.52128566377125      3.95804351389050     -4.26672833813862
  O   0.81977059273130      3.56065659799882     -2.22866412051737
  O   -2.03586623767048     -0.13165309590513     -0.65851300669395
  N   0.56277138684205     -1.58654866028190     -0.88709571142556
  N   1.24887277314017      3.17268783160831     -3.33746870223228
  C   1.36711813980319     -0.61287187702236     -2.96902050702637
  C   1.11666264775268      0.75744087010299     -2.59726402871782
  C   1.44726220665579      1.74429117313550     -3.58100234913869
  C   1.98001597447183      1.39859354920501     -4.82686182470529
  H   2.22297106691918      2.21034877794396     -5.50569985836158
  C   2.21987509999524      0.06325534481344     -5.18115721042141
  C   1.90399042703730     -0.92156598366367     -4.22957168100510
  H   2.05553063600382     -1.97155723150948     -4.48015956592822
  C   1.07615973448910     -1.71045142949873     -2.08128201125131
  C   -4.09956263113260     -1.02597969504492     -2.05877009351003
  H   -3.84206300715114     -0.39158539236921     -2.91342003653634
  H   -4.73274099283034     -0.46923814727360     -1.35814735539175
  H   -4.60226115111760     -1.93673150187127     -2.40654129690007
  C   -3.26704680565188     -2.39293237188209      0.16682168101092
  H   -2.43839093820708     -2.73870780361236      0.79407529928497
  H   -3.81937699039199     -3.25617183174548     -0.22522092334573
  H   -3.92753365125685     -1.72479977498582      0.73268809264875
  C   2.78028894241330     -0.29100231000948     -6.50584102816322
  C   3.65238586242268     -1.38892667446486     -6.65305258716703
  H   3.94476792376397     -1.96373772032008     -5.77477661865878
  C   4.17629513471333     -1.72457434543802     -7.90550584339447
  H   4.85504550065216     -2.57161432119886     -7.99612014409905
  C   3.84332467115917     -0.96622109352389     -9.03591432197013
  H   4.25341525105959     -1.22598968200996    -10.01061672581045
  C   2.98039290353193      0.12996541324285     -8.90249469196913
  H   2.70974685021192      0.72190552886931     -9.77576372126715
  C   2.45214360367259      0.46259246383926     -7.65138972708179
  H   1.76003095038500      1.29900933595333     -7.56211560649581
  H   1.28770956862003     -2.72514211909549     -2.42107187495891
  H   0.03462768308968     -2.55414422171576      0.65817059337528
  O   -0.34707171722230     -1.05356929039346      1.48019289463140
  C   -0.96114365361288     -0.73744110114886      2.58666442715227
  C   -1.27860958104294      0.62626838815825      2.92406912198116
  C   -1.89587145656585      0.92424452861247      4.14803408949170
  C   -2.23334739489752     -0.06225521007496      5.09481319117044
  C   -1.92833619497941     -1.39012380566297      4.77512997597640
  C   -1.32079511905106     -1.72603930451525      3.55797326440356
  N   -1.08631911110365     -3.14332081989527      3.32687746935079
  O   -1.21956123081379     -3.92190963844781      4.28939704901582
  O   -0.78368196495189     -3.54495657896917      2.17327154953206
  H   -2.18334773155930     -2.20256350262673      5.44874501310573
  C   -2.88373032919536      0.28906201824409      6.37834014370082
  C   -3.79619843415923      1.36081427832372      6.45863761033880
  H   -4.05005512600458      1.91853442225104      5.55768240869117
  C   -4.40545937632661      1.69329211248885      7.67275646097566
  H   -5.11250334313618      2.52089984047447      7.71199598042919
  C   -4.11890218927905      0.95778113073616      8.83054677795855
  H   -4.59406741737687      1.21593047646096      9.77565707620984
  C   -3.21596510576638     -0.11205800801239      8.76356052524829
  H   -2.97936441339734     -0.68439421469956      9.65947601760657
  C   -2.60231694169324     -0.44120663594412      7.55119967046479
  H   -1.87795213281089     -1.25398694262440      7.51482490053574
  H   -2.09229730998231      1.97068396438370      4.38105770237672
  C   -0.94477999303303      1.73232881819999      2.05815723410158
  N   -0.40576267469954      1.62124507943731      0.87568572362886
  O   -0.18502815453133      2.83635473631243      0.26129040849836
  H   0.19266154629581      2.59153558694985     -0.63726091372282
  H   -1.15784854565761      2.74399350812181      2.40592153529976
