68
Coordinates from ORCA-job BACNOJ-oxo_0_6_tpss_d4_lanl2dz_631gpol_Co2.opt
  Co  0.58549021923840      0.00084700293241      0.19565584066088
  S   -2.25979347765512     -0.83404079678727     -1.17972977332505
  O   0.01762984959023      0.70546129379545     -1.59457812409379
  O   0.78867922141144     -2.99285136436951     -0.01061163823123
  O   0.13746697410043      3.40019271775173     -4.67856856701938
  O   -0.12384704716291      3.15820277998629     -2.51717393169333
  O   -1.62737340058759     -0.79895870498953      0.21220042913155
  N   0.85046799281879     -1.82125921935331     -0.72791294838402
  N   0.23025685451319      2.72317957332728     -3.63751586733070
  C   1.24906232809129     -0.87462374603496     -2.93041915566628
  C   0.66890260256229      0.43066536721791     -2.68800070499737
  C   0.77731821612911      1.37294810117886     -3.75997591702587
  C   1.40079605438913      1.06636781041662     -4.97133431674375
  H   1.46667520572740      1.85079080985739     -5.71913445467917
  C   1.95477210822347     -0.20245780729427     -5.20045352316933
  C   1.85171642720793     -1.15195990864654     -4.16560730285663
  H   2.24196026251375     -2.15595549163320     -4.33100309226002
  C   1.16902282631600     -1.97011587896813     -1.97929060536900
  C   -3.10613310915910      0.77339234199198     -1.41628694862607
  H   -2.32268515064013      1.53214959823467     -1.49599709264981
  H   -3.74900349438747      0.97574867171998     -0.55117976915895
  H   -3.69456398002895      0.73983611597309     -2.34174979783286
  C   -3.77515306497339     -1.83689086174122     -0.94389111282807
  H   -3.45074098664796     -2.85945038225996     -0.72300096494962
  H   -4.37406483935596     -1.82660682437176     -1.86303256532601
  H   -4.34706513240976     -1.43758361885973     -0.09808209339610
  C   2.61857671744779     -0.52672008654469     -6.48196784511734
  C   3.71687244873124     -1.41074209768719     -6.52476957122775
  H   4.10372830555973     -1.83164398339682     -5.59759069488668
  C   4.33973222704648     -1.71889770676707     -7.73782684815336
  H   5.19292863481780     -2.39554266332679     -7.74855084792671
  C   3.87943200906351     -1.14834632256727     -8.93243227025664
  H   4.36556894081786     -1.38773355714598     -9.87680782558348
  C   2.79043707489895     -0.26616139707989     -8.90339989549790
  H   2.42089877001249      0.17652886804389     -9.82719334683776
  C   2.16560112930224      0.04081720242679     -7.69145258587050
  H   1.30239571617857      0.70496901863658     -7.68205914846960
  H   1.40002545150715     -2.97846485153188     -2.33266908097872
  H   0.58200442196709     -2.70000128592152      0.92090799164175
  O   0.48933800098951     -0.87660672696152      1.96012271009207
  C   -0.39081923976639     -0.66367275613059      2.87832015687545
  C   -1.08094470551481      0.60659173943547      3.04146863575225
  C   -1.88810989553201      0.82387968345974      4.16939467960086
  C   -2.11037885425477     -0.15167180948904      5.15713680303716
  C   -1.48731995575190     -1.40350641840689      4.98159530832331
  C   -0.67372628244465     -1.65267951476396      3.88295336227778
  N   -0.11933575263686     -3.00302653607062      3.77883146939842
  O   -0.09107959748164     -3.69007574354419      4.81619165868880
  O   0.27288613566952     -3.42462277307821      2.67016554324109
  H   -1.65314457830054     -2.21489770192942      5.68411944791654
  C   -2.97075850529941      0.11257002280927      6.32856927131512
  C   -4.07153065139915      0.99141486496525      6.23881538934965
  H   -4.31476840672474      1.45289730041350      5.28267534166697
  C   -4.87645961320805      1.24667200503151      7.35226384048295
  H   -5.72627872721435      1.92129125315959      7.25972542575969
  C   -4.60062152947004      0.62725888447051      8.57922152622519
  H   -5.22782771490185      0.82629106565549      9.44657233237192
  C   -3.51243772300859     -0.25045929734422      8.68207476228282
  H   -3.28470822870638     -0.72954508485392      9.63297004013696
  C   -2.70599774142245     -0.50558889449604      7.56976280532188
  H   -1.84438397558705     -1.16411993884862      7.66875866354845
  H   -2.34520029051284      1.80614436911423      4.28638179765558
  C   -0.97050263415139      1.70815824166587      2.11076792463389
  N   -0.37686168354843      1.62971058244888      0.95598633714657
  O   2.24218983615434      0.47176733418612      0.10100712734621
  O   -0.44426013491853      2.78351925522893      0.20677347079854
  H   -0.11891489254254      2.50350648149796     -0.69764992787942
  H   -1.45223796568932      2.65371139616254      2.37311006361796
