69
Coordinates from ORCA-job BACNOJ-OH_0_1_tpss_d4_lanl2dz_631gpol_Co2.opt
  Co  -0.21539142798821     -0.23857921741933     -0.07582201166451
  S   -2.72844753423981     -0.88841082050809     -1.57506145339029
  O   -0.42668595700761      0.57069427604911     -1.77559308684056
  O   0.22469705509000     -3.04127165738372     -0.15638898817227
  O   -0.02924156426901      3.32693828056107     -4.80803453535354
  O   -0.73159671616336      2.96666655960936     -2.76515193177974
  O   -2.14062671252471     -0.85708516500841     -0.13762076277324
  N   0.36489063164798     -1.86682693492041     -0.85481718459786
  N   -0.10254445335851      2.61337562986861     -3.79095553146666
  C   1.08031360219178     -0.89179499623677     -2.95383541222052
  C   0.39222937633539      0.35651273565038     -2.78236806453386
  C   0.57231243941360      1.31843650225839     -3.81964891086786
  C   1.39300906651001      1.07585194898965     -4.92953415488413
  H   1.49822077771585      1.87318261513966     -5.65863426247799
  C   2.07378590051593     -0.13700856213318     -5.07956412065591
  C   1.88368985335494     -1.11101574233757     -4.08018719560135
  H   2.35956613701895     -2.08508901873172     -4.19130569696180
  C   0.90796718544991     -1.98897394452925     -2.02754907066116
  C   -3.53966142973759      0.72919038167875     -1.82343900653794
  H   -2.74142544163951      1.47199216830244     -1.90774151202206
  H   -4.18076813830247      0.94625826388805     -0.96125223779778
  H   -4.12413623949977      0.69563343956983     -2.75146052489060
  C   -4.23353732199759     -1.88147027814584     -1.30778361585332
  H   -3.90684739175801     -2.89973327176082     -1.07278435379588
  H   -4.83793205224829     -1.88285152613046     -2.22291404520131
  H   -4.79462710100565     -1.46358493599141     -0.46448389578706
  C   2.94716923675794     -0.39243727364046     -6.24792961776492
  C   4.10432183806438     -1.18787487061071     -6.12201436875551
  H   4.37643076359692     -1.58891476696717     -5.14634560215370
  C   4.92725721714743     -1.43416618195779     -7.22556026581368
  H   5.82136321635732     -2.04427320207805     -7.10523994007135
  C   4.61289103474111     -0.88589387980326     -8.47616473761615
  H   5.25489335937248     -1.07552698017763     -9.33493036937574
  C   3.46749000266444     -0.08991786766066     -8.61356982650662
  H   3.21062717381272      0.33536826487501     -9.58272355800063
  C   2.64144429370207      0.15227023281651     -7.51187411458058
  H   1.73779313011118      0.74800772824312     -7.63472788307242
  H   1.25606367400841     -2.98239675641626     -2.31389714012618
  H   0.02911778706790     -2.74455421225982      0.78542247613570
  O   -0.05708930898408     -1.11319301806676      1.58063670130440
  C   -0.69554135941584     -0.80147858246915      2.67912830353985
  C   -1.25630153289547      0.50208283183889      2.91514112755088
  C   -1.84103459166955      0.80913127305409      4.15251783993444
  C   -1.92789133779590     -0.11813243532945      5.20747231682527
  C   -1.40045571919077     -1.39505849393359      4.98033857314508
  C   -0.81343078398063     -1.73424440048139      3.75590323631596
  N   -0.34360773559470     -3.11148854847051      3.62968317479756
  O   -0.26071956332773     -3.79005360357649      4.67073013300348
  O   -0.06770121981749     -3.57385242075513      2.49937031844975
  H   -1.45959374922141     -2.17049562201601      5.73805839046727
  C   -2.55551794011432      0.23562938385096      6.50130965035613
  C   -3.64805762965975      1.12501104160001      6.55761039232300
  H   -4.05504746916994      1.53384867114511      5.63335487276694
  C   -4.23779458145580      1.45923978289729      7.78084779481101
  H   -5.08563022242833      2.14278047307527      7.80158676214634
  C   -3.75097437778604      0.90662798239865      8.97292032773732
  H   -4.21121601067998      1.16531938687867      9.92522284839862
  C   -2.66741857285261      0.01859317894350      8.93047728364434
  H   -2.27576349414201     -0.40992800493746      9.85187965331441
  C   -2.07383712932494     -0.31118047528162      7.70831807404022
  H   -1.21294061571990     -0.97819290464204      7.68783702116133
  H   -2.21899811559261      1.82036409160218      4.30291343098745
  C   -1.21305351950512      1.55129260664591      1.92171381384664
  N   -0.82362715242506      1.38417116860947      0.69530917929205
  O   1.51200848334586      0.38575934897974     -0.04601509987010
  O   -0.87153113099305      2.51900524612282     -0.07768931915568
  H   -0.59285839392508      2.20638092491790     -0.98948315490097
  H   -1.54213071568430      2.55242428886464      2.20442978625397
  H   1.88971021909804     -0.04932013615661      0.74859308200406
