68
Coordinates from ORCA-job BAKPUC-OH_1_1_tpss_d4_lanl2dz_631gpol_Co2.opt
  Co  1.84902021221751      1.83423641692649      6.10479842553367
  S   -1.13477260864407     -0.73377731981009      7.96136897473335
  O   1.15562461913571      2.82212548137131      4.62774445710528
  N   2.02228161413863      3.53021769580924      6.93316347368405
  N   1.43051181984291      4.88459888194088      3.66435019439319
  H   1.80277288528988      5.82024041819096      3.80722927731887
  N   0.05534515753292      1.60016194997394      6.89237179796125
  C   1.50333409028526      4.04655684472813      4.71133068720825
  C   0.16247419421919      3.52575914153991      2.02951193104567
  H   -0.21877758843010      2.88755119886468      2.81921278717329
  C   1.46942504288534      5.47040954158542      1.33008615733396
  H   2.12747128722303      6.30182351826627      1.58695695782834
  C   1.01495377717264      4.59857622423176      2.33200123090990
  C   -0.45549642585728      0.61083255754109      7.34824467042723
  C   1.09091776812007      5.26773752889406     -0.00266326502909
  C   1.90890302442190      4.55167159824521      6.04425101732468
  C   0.25055694222303      4.18022004199547     -0.30054862322987
  H   -0.05244811566223      4.01461944511256     -1.33481237711398
  C   -0.21960862294905      3.30999435849181      0.69676090904446
  C   1.57506012164594      6.19351529314620     -1.09721453540449
  H   2.18048003786209      7.01282869888079     -0.69175962475286
  H   2.18791211451603      5.64876322013790     -1.82870838755650
  H   0.72855810291871      6.63215612916858     -1.64282432673199
  C   2.25626294586855      3.76932044552787      8.23114593429702
  H   2.30468343624131      2.89388622128708      8.87192302289652
  C   -1.12611864851675      2.15036914371941      0.34158053518106
  H   -0.56872643198593      1.37046981843088     -0.19794934321833
  H   -1.56431939227642      1.69597274960352      1.23863571660833
  H   -1.94581496601686      2.47434159381106     -0.31266202343518
  C   2.05071975240393      5.88009858460273      6.45275155047061
  H   1.92752124157478      6.70311746248525      5.75231102138400
  C   2.42156504373414      5.07646564875127      8.70244515627370
  H   2.61258413482879      5.24748411774095      9.75836230544960
  C   2.32426120739552      6.14221369138586      7.80117571492934
  H   2.43961797598342      7.16778307634991      8.14341635881598
  O   2.60401868643888      0.85302916618407      7.55555646538258
  N   1.69092502430590      0.12787719633925      5.28403792708709
  N   2.51321283693540     -1.23875761867991      8.49166628923702
  H   2.14251918235795     -2.17687989175637      8.35613657543040
  O   3.49339003609295      2.10489030865810      5.28576193714629
  C   2.36424086072346     -0.40258669363795      7.45584255515963
  C   3.62040462830195      0.20710219845531     10.16689218185800
  H   4.01560337427123      0.84870857067100      9.38667192887394
  C   2.36018559734875     -1.78116911527454     10.82952177782338
  H   1.75051411116286     -2.64168376668900     10.55185699002647
  C   2.83799424753299     -0.91210603900497      9.83890411929561
  C   2.63936640712582     -1.52752828858100     12.17975887927396
  C   1.94248657778412     -0.90594442165090      6.12984495397801
  C   3.41319445484561     -0.40009507052081     12.50102413403392
  H   3.64050593940558     -0.19717584273554     13.54785105782344
  C   3.90958228358619      0.46867283533213     11.51284108603573
  C   2.09125767863393     -2.43150919262476     13.26188379356223
  H   1.98467768059042     -3.46385947417909     12.90630057091719
  H   1.09735429255850     -2.08872677037114     13.58511807491632
  H   2.74323796049608     -2.43543693995081     14.14363253011395
  C   1.34910782640250     -0.10140089461779      4.00791887322371
  H   1.18168871451369      0.78094529874707      3.39897314406771
  C   4.76039146911284      1.66079480688387     11.89666534102543
  H   4.23958959694628      2.29919132397923     12.62367724120241
  H   5.01224031827674      2.27129921897884     11.02043593735695
  H   5.70154321972478      1.33877744513867     12.36374392845104
  C   1.85204798773432     -2.23274923750067      5.70259586192768
  H   2.07464401134551     -3.05689135133660      6.37603373255743
  C   1.23041177618026     -1.40635160575766      3.52008742891893
  H   0.95002066117212     -1.56768641305528      2.48278686429109
  C   1.48355133453096     -2.48382667116994      4.37693534705066
  H   1.40193238783558     -3.50687190942804      4.01838931677579
  H   4.16193308638309      1.91886742022672      5.97886539631581
