72
Coordinates from ORCA-job BAKPUC-CH3OH_1_2_tpss_d4_lanl2dz_631gpol_Co2.opt
  Co  2.79761701720701      1.34966053050460      5.77356845434769
  S   -1.17814346310190      0.03613038168566      7.32391349968758
  O   2.56722147368342      2.60939810289464      3.91584975748110
  N   3.21169579818218      3.09370431391725      6.47018908458832
  N   1.37040235937148      4.58509820078609      3.80786826783655
  H   1.08913302242863      5.38626977919581      4.36945339187780
  N   1.02194832189449      1.58326314541361      6.44658885349295
  C   2.23045851644201      3.72741010288669      4.39831736336949
  C   0.93469127156672      3.45187728850309      1.64052491731653
  H   1.69634130606527      2.70821749743020      1.84337860292138
  C   -0.31012659632355      5.43936109273977      2.32683330711032
  H   -0.50455583922561      6.21808696253907      3.06643247370102
  C   0.67176362642485      4.46506312543703      2.57559238984550
  C   0.08911646560330      0.91839100167729      6.81249387913475
  C   -1.05144405529303      5.41125017822936      1.14057138118618
  C   2.79673746833428      4.14859182096076      5.71885489142345
  C   -0.78325863237399      4.39133380124367      0.21074453647117
  H   -1.35561253968886      4.35604307622090     -0.71668554413386
  C   0.20061938350005      3.41685747306567      0.44499183994082
  C   -2.11882533602363      6.44825127202896      0.86661977104684
  H   -2.20399093124112      7.16428958223133      1.69263737064425
  H   -1.89541000841710      7.01113070461381     -0.05020075421036
  H   -3.09942207166803      5.97290412601144      0.72661886408127
  C   3.71670373099963      3.30301542351744      7.70222797399514
  H   3.96729146588536      2.40511383437876      8.26062078995936
  C   0.48209893609076      2.34756305518542     -0.58947799082011
  H   1.03487385527999      2.76545121543610     -1.44346827932431
  H   1.08464853703167      1.53310579190361     -0.16848727936927
  H   -0.44959917534444      1.91972274737013     -0.98184262836518
  C   2.93769823367417      5.46441934721882      6.17342449495010
  H   2.65592298792826      6.30388689034958      5.54113829598808
  C   3.86649445541462      4.59102729128687      8.22305070030025
  H   4.27502776022833      4.72331602716935      9.22130604368832
  C   3.48259640777054      5.68839964672324      7.44338565720384
  H   3.60326011202848      6.70307035928426      7.81558733264556
  O   3.43873551792920      0.18140625107564      7.52103139217085
  N   2.26005317071571     -0.38917405389548      5.19055248312241
  N   1.95378048068420     -1.20866956174553      8.62396908247587
  H   1.08913093609555     -1.72336716876188      8.45742569899504
  O   4.58196361420301      1.09898229055447      4.87465808809941
  C   2.55884340107368     -0.72411639517483      7.51790227208716
  C   3.36208335325379     -0.25847841970783     10.41726735518591
  H   4.22278504266039     -0.24336001045369      9.75628681175915
  C   1.01002905868803     -0.79934943180061     10.80278650974319
  H   0.05669327245191     -1.16067301033473     10.41665363679545
  C   2.12522730390389     -0.73834253537818      9.95691518286626
  C   1.11243994706360     -0.36186950006255     12.13158565467678
  C   2.12016157291291     -1.28616038882727      6.20289456314509
  C   2.35048992793331      0.12168211802295     12.58373050249583
  H   2.44130758627278      0.45722625901760     13.61739648592584
  C   3.47773434972047      0.17727111969135     11.74411107373246
  C   -0.09734909838511     -0.38482766090167     13.04076521596971
  H   -0.73713913299066     -1.25159123866872     12.83230209954837
  H   -0.70927272346258      0.51766652548035     12.89543260098512
  H   0.19897216832697     -0.41973458986082     14.09605100231514
  C   1.92660782627719     -0.73666208920054      3.93526582319557
  H   2.03332834728703      0.04262949519487      3.18615664272667
  C   4.80421683925589      0.67992587118739     12.27460493846532
  H   4.69994358148815      1.67744241927064     12.72392002259973
  H   5.55684673414042      0.73893837408633     11.47842395172684
  H   5.19399506048698      0.01284981696781     13.05646321343691
  C   1.65029644645104     -2.58069167876969      5.97295048323152
  H   1.57378138080960     -3.29071508991819      6.79291496929087
  C   1.44864469509681     -2.01522644571944      3.63432523162156
  H   1.18646902118335     -2.26420363946985      2.60956248027457
  C   1.31017138124740     -2.95037837545298      4.66598952733094
  H   0.94319017499660     -3.95268750100976      4.45844148112037
  C   5.81311092967544      1.22284037698452      5.63774432822283
  H   6.66084845194301      1.00155352923613      4.98016678087535
  H   5.91018515727824      2.22718761955358      6.06782568489651
  H   5.73797537404414      0.47844645653131      6.43133534877544
  H   4.52212498495309      1.81329507221873      4.20080967010047
