68
Coordinates from ORCA-job BAKPUC-OH_1_5_tpss_d4_lanl2dz_631gpol_Co2.opt
  Co  2.29960754259637      1.64189108660437      5.87368209588431
  S   -0.33065785465139      0.95711125621116      9.58858132143263
  O   1.40366476496790      2.79399067754193      4.38976091017667
  N   2.35815916208465      3.59184024682005      6.73944353968938
  N   1.30889793027578      4.93935078805553      3.57837674864791
  H   1.53067784413210      5.90667521066590      3.80089098516996
  N   0.69883114617507      1.38450946987295      6.99762433828122
  C   1.53064492297526      4.03831206518895      4.56019724173792
  C   0.43269384014990      3.49637168949205      1.75789977191598
  H   0.38631013517767      2.64046890375771      2.42044875941508
  C   0.94379944085561      5.85828464160905      1.39303558422812
  H   1.30166228418578      6.81358095157793      1.78128297439120
  C   0.89534483746689      4.73265289842384      2.23459730130126
  C   0.25119382490296      1.21002063902320      8.10103166912400
  C   0.53615361526621      5.76229109890673      0.05843583297084
  C   1.92473258983401      4.56571705941382      5.90823268401509
  C   0.07669907406230      4.51851038390793     -0.41099464530351
  H   -0.24932799125153      4.43193158179201     -1.44787573815742
  C   0.02210434013465      3.38831005892236      0.42059062563823
  C   0.58643521011456      6.96439013917943     -0.85921670401224
  H   0.90752867633203      7.86581725101739     -0.32376738475629
  H   1.28757721597560      6.79506112134594     -1.68837223335308
  H   -0.39931745905780      7.16288519408307     -1.30136771580334
  C   2.69597396116936      3.88536158572842      8.00351664739755
  H   3.00987756811650      3.04326035670179      8.61621020576698
  C   -0.45778617624554      2.05801637641087     -0.12011137666154
  H   0.34424799186717      1.55248104756723     -0.67836481271700
  H   -0.77624542294226      1.38970494823361      0.68990124239988
  H   -1.30240247963703      2.18929624470086     -0.80821091287104
  C   1.81118947499804      5.89407540811341      6.33875996143551
  H   1.41565790773537      6.67350257823619      5.69062724343625
  C   2.62708158644979      5.19105918912667      8.50143026373177
  H   2.90654229273509      5.39794548778211      9.53108957991042
  C   2.17614450507348      6.20831191779346      7.65336776735501
  H   2.09207266926509      7.23164446675728      8.01192775221494
  O   3.27364272642062      0.41838038345854      7.41617877115118
  N   1.96806576734051     -0.37033620510551      5.19159877998490
  N   2.49183691127630     -1.41867724546235      8.55853201816449
  H   1.90140576904779     -2.24214678183475      8.46303868686614
  O   3.93375511534513      1.80853315969536      5.08559843221015
  C   2.70729301594918     -0.70791555602069      7.42896334215614
  C   3.70112133957809     -0.04796244334254     10.23155707823847
  H   4.28137523594295      0.43504292818841      9.45387178521210
  C   2.01182427769231     -1.68363058648628     10.89778889499337
  H   1.27592229789968     -2.43976588979998     10.62063671236872
  C   2.75307179977006     -1.02919812481362      9.90079752002334
  C   2.19471770540640     -1.35188279814592     12.24609236551011
  C   2.20695931824428     -1.30124116360658      6.14469143838701
  C   3.14126606654631     -0.36502242165176     12.56781500334533
  H   3.29639760911516     -0.10204798527362     13.61461833379890
  C   3.89735541288505      0.28736447176876     11.57866699259174
  C   1.37142279911843     -2.02051294959550     13.32524696614599
  H   0.96227060576050     -2.97871680517701     12.98258009259375
  H   0.52477067120101     -1.38262090690934     13.61866676888856
  H   1.97157895048921     -2.20388624515424     14.22532364907848
  C   1.53428790218965     -0.75546384564118      3.98268850094134
  H   1.36073831642253      0.04342462978868      3.26570074655057
  C   4.92758358591226      1.32801774188924     11.96325989170223
  H   4.48882090775569      2.09928436410271     12.61110427599735
  H   5.34783817382036      1.82015632501989     11.07739673012859
  H   5.75863037217673      0.87170344757083     12.51963888811369
  C   2.03459781553894     -2.66852233292635      5.90012188846942
  H   2.28192388249706     -3.40976325373148      6.65754137349028
  C   1.32137702987720     -2.10216213329906      3.66389424685248
  H   0.97085785381368     -2.37840824774306      2.67284748577904
  C   1.58095689420121     -3.07183146520921      4.63758711757907
  H   1.44423141591030     -4.12828201983306      4.41790571921064
  H   4.65684348356557      1.37671593471530      5.58758797944310
