67
Coordinates from ORCA-job BAKPUC-oxo_1_6_tpss_d4_lanl2dz_631gpol_Co2.opt
  Co  2.16975558787441      1.20651639389187      5.72310010979454
  S   -2.01436526996515      1.56853020060996      3.75001779563460
  O   2.03686743458030      2.65214536051911      4.06607972216531
  N   2.56289879089806      3.09166127926573      6.64113103490462
  N   1.65228029555040      4.88226708364343      3.66838733232005
  H   1.66411789615450      5.80247824616487      4.10089640860406
  N   0.16774928460132      1.45470064903323      5.53760465552085
  C   2.06403209734271      3.84965784219761      4.44260448601295
  C   0.96754455130912      3.68985842320490      1.60184004617880
  H   1.30858697571490      2.74193761491924      1.99982621649430
  C   0.66284273521709      6.10277570798761      1.85673106528075
  H   0.77171460539919      7.00450712613923      2.46234662114536
  C   1.09930926506690      4.86227037889155      2.36059658456669
  C   -0.75836184805681      1.50406011691571      4.77571830364473
  C   0.07908413991601      6.18584274831192      0.58990902376403
  C   2.53474922225432      4.17561012201124      5.82629557912423
  C   -0.05658572438784      5.00273129257719     -0.16077702590165
  H   -0.51336558473376      5.05211245543899     -1.14956781600151
  C   0.38189235592340      3.76208505731978      0.32774321359620
  C   -0.39741916820160      7.51092590420206      0.03627123879822
  H   -0.27480644047685      8.31926005932341      0.76710818074973
  H   0.16486273126897      7.78313836480939     -0.86794860168041
  H   -1.45877932003562      7.46145123318948     -0.24271230770980
  C   2.92889241538054      3.24085029354072      7.92697934275365
  H   2.90088186478604      2.33751540766594      8.52901152328650
  C   0.25264208366102      2.50943714644127     -0.51199009342795
  H   1.18370834658458      2.31422688454176     -1.06474541040009
  H   0.04932154635058      1.63128143630281      0.11405229366887
  H   -0.55550062952612      2.60385598703405     -1.24731404029442
  C   2.92698355105872      5.44199394675035      6.27784359543060
  H   2.95696471978845      6.29666169291321      5.60520241448007
  C   3.31242790242623      4.47827604761029      8.45358634876032
  H   3.60311355488203      4.55490686946157      9.49808080850795
  C   3.32470615147012      5.59385905181939      7.61078700727630
  H   3.64041278840161      6.56713839244360      7.97965191820956
  O   2.26542049037162      0.36183216674337      7.62156924201766
  N   1.55830319788712     -0.88930241780924      5.42749591581595
  N   2.12593749693056     -1.50131782349477      8.93252156278312
  H   1.78441265476392     -2.45705565151500      8.98739571770993
  O   3.70073636902018      0.73933008692864      5.07821615813699
  C   2.01947130842014     -0.86931136848093      7.74356080477802
  C   3.54927817255088      0.06315435062991     10.20071466974829
  H   4.01507924354642      0.40065304813013      9.27977437714251
  C   1.98905528523683     -1.42536582547636     11.34773970444420
  H   1.22009300672995     -2.19732302640455     11.30088730189521
  C   2.55660397256259     -0.92763802584004     10.16682542092750
  C   2.39590134654645     -0.91828869720962     12.59028173417908
  C   1.61333496978484     -1.65545895751574      6.53869816649198
  C   3.37654981514359      0.08815161444571     12.61401314036023
  H   3.69869323482305      0.48912648634552     13.57555234465586
  C   3.96228656582600      0.58269183383998     11.43567270321044
  C   1.78104247439132     -1.42908791918186     13.87518549557235
  H   1.16465690516557     -2.31880077195741     13.69978991960873
  H   1.14166332208697     -0.66177816867146     14.33462017062638
  H   2.55687970916245     -1.68859328180467     14.60752381767857
  C   1.20832364973017     -1.43350863323118      4.25451863148141
  H   1.18476568543805     -0.75746684965289      3.40334972321353
  C   5.03935182867108      1.64535914996734     11.49834329118777
  H   4.69241720043642      2.52667245593234     12.05606779880572
  H   5.34169039578826      1.96793751279231     10.49411602429285
  H   5.93446112907449      1.26950796992088     12.01311728252355
  C   1.32106996233260     -3.02503616713556      6.49852555038581
  H   1.38399586918505     -3.65126641095383      7.38611842100552
  C   0.88998925998883     -2.79130052446352      4.13502424856313
  H   0.60682484446859     -3.20093562396843      3.16901408346903
  C   0.95073482576080     -3.59763034720855      5.27640217749296
  H   0.71721689969694     -4.65817700079362      5.21911682453552
