66
Coordinates from ORCA-job AGIZEX-CH3OH_1_5_tpss_d4_lanl2dz_631gpol_Fe2.opt
  Fe  7.12703405879576      5.18479801651371      4.21999307224930
  S   8.18257163312661      2.48238331495875      0.77919905930324
  N   8.31258167913743      5.52597170609295      5.90955236317638
  N   7.93965455889323      3.55065939264577      3.38783957509977
  N   8.40512083501775      4.97180000229358      7.13381334649723
  C   9.46993315041759      5.45439017538141      7.84648449888079
  C   10.42892465538871      8.09570356915747      4.29138647404631
  N   8.50136732695834      6.80048698285884      3.62697758566903
  C   9.33187199478416      6.40871926149654      5.82055709747122
  C   9.44114647504906      7.13893446742001      4.55509268926331
  C   9.78565675737342      4.99857232414675      9.19960585275483
  C   10.08359152828987      6.40032977426897      7.01196368125133
  C   10.45591692369248      8.71013811096573      3.03547138543931
  C   8.06737007229209      3.08340936580036      2.28415543291428
  C   9.49468198232870      8.35585470009671      2.08130989382123
  C   11.11116845197657      5.07444293123946      9.67292851661003
  C   10.41953310501630      4.11701436213309     11.79243259003806
  C   9.09863913229301      4.03951187189164     11.32928631858173
  C   11.42273089403111      4.63749210167234     10.96265883246879
  C   8.78034409852743      4.48026111091393     10.04234918497814
  C   8.53405323734408      7.39916448400116      2.42276781996725
  H   10.94316136422253      7.00719779816089      7.26246252781010
  H   11.89629131509078      5.45210321124905      9.02041975110096
  H   7.77126490515883      4.20571477516623      7.34853984286771
  H   7.74395999175577      4.45171016158486      9.70537576756722
  H   10.66521572229166      3.77557390372790     12.79592444411152
  H   12.44977616758444      4.69473801131699     11.31731106653761
  H   11.21746832063161      9.45206442605171      2.80556451096531
  H   11.16333721944941      8.34616290874217      5.05301784534554
  H   9.48551469013060      8.80752529079314      1.09275946653335
  H   8.31531101198749      3.64628120559854     11.97415182126257
  H   7.76332151863467      7.08806949562845      1.72104535702002
  N   5.75741912217554      5.37327009003859      2.59898575677855
  O   6.20284123455624      3.60122410987286      5.58510933163829
  N   5.64652037211143      4.85431572443256      1.35846701402587
  C   4.61845656211917      5.40860260601014      0.64303784483020
  C   3.71876029222408      8.00575397754669      4.22222694129722
  N   5.63903570917230      6.68597141409979      4.87195277165369
  C   4.77232678744921      6.30013939813568      2.69328915570921
  C   4.68903833600510      7.02831319009442      3.95346871050766
  C   4.30903366051083      5.01080456096917     -0.72994277249034
  C   4.03358266906236      6.35477920623958      1.49484135297999
  C   3.72453662455043      8.64519341142323      5.46283937451767
  C   4.70053324357640      8.29297099641550      6.40595475864971
  C   3.04122786321851      5.30359400897551     -1.27290481591546
  C   3.68183185911274      4.25952187283242     -3.36652037760447
  C   4.94378406449896      3.96341125857339     -2.83318462481672
  C   2.73291067746934      4.93201335752988     -2.58338522578722
  C   5.26090264457390      4.33830746083083     -1.52519133863842
  C   5.63395126773619      7.31264232370601      6.06619925227879
  H   3.20629824735285      7.00878690605321      1.25496957421647
  H   2.29258949973821      5.80417792233812     -0.66122852542723
  H   6.27512702235469      4.09480571070798      1.07678083863948
  H   6.25466538021267      4.12156770583969     -1.13425559275353
  H   3.43908005671746      3.96801223958778     -4.38644400519744
  H   1.74996838428761      5.15970650418348     -2.99104463190725
  H   2.98155653956302      9.40618722434437      5.69146903107124
  H   2.97601023039944      8.25340320534571      3.46793013892162
  H   4.74091307428801      8.76819205559654      7.38272287130348
  H   5.68572818560716      3.44574381177465     -3.43777076738202
  H   6.41500023833745      7.00710844024036      6.75834584445186
  C   4.77136735760481      3.36698263434185      5.50682567127523
  H   4.43922862069138      3.34758038068268      4.46153974058518
  H   4.51513123331387      2.42580080732626      6.00753953430174
  H   4.30064590662173      4.20475766204053      6.02633693913989
  H   6.66597225511435      2.90441860790038      5.06309255754273
