60
Coordinates from ORCA-job AGIZEX_1_3_tpss_d4_lanl2dz_631gpol_Fe2.opt
  Fe  6.90285621181357      5.58438701170475      4.35827289841626
  S   8.11499122152247      2.16359321311122      1.70916511124681
  N   8.05039338148662      5.68924639155132      5.93819157449083
  N   7.77931513700846      4.00047716929143      3.83007907612521
  N   8.20154039720852      4.90203584059515      7.02521854462625
  C   9.30581018562920      5.24416219233076      7.76458069933079
  C   10.12342987475109      8.49725528573536      4.69938148594945
  N   8.25426323021135      7.21811548518010      3.85828417141119
  C   9.08039659545675      6.56992899039984      5.96978436681402
  C   9.17460213273355      7.47454132219912      4.82902683566822
  C   9.67703629975759      4.53320107929324      8.98693410133176
  C   9.88297371844443      6.33301268437334      7.10319279911057
  C   10.12204631338969      9.26929657470786      3.53451389850908
  C   7.94798416083921      3.21223735437642      2.93906061156355
  C   9.17360401472324      9.00464131093751      2.53756651458534
  C   11.02703959702047      4.49558672109077      9.39052280043559
  C   10.42064804031999      3.15251867337319     11.31840237337340
  C   9.07593619243901      3.18747896703361     10.92403972351294
  C   11.39287908134412      3.80994166412586     10.55125753897920
  C   8.70286025275234      3.87629426822942      9.76712951746846
  C   8.25571612603896      7.97096156002842      2.74392698012984
  H   10.75991881623998      6.87964511906132      7.42209720192060
  H   11.78704219805097      4.97936329860807      8.77978246221587
  H   7.64560532223683      4.05576840073704      7.09964025361742
  H   7.65001337619962      3.93261167349770      9.49034897811539
  H   10.70927915805009      2.61717876359798     12.22059830431346
  H   12.43803446589332      3.77953960113002     10.85211032872116
  H   10.85143787799812     10.06606226681298      3.40618169170652
  H   10.84582473840314      8.67809909720520      5.49165725512470
  H   9.14514433403497      9.58311320384027      1.61777501948044
  H   8.31715087244384      2.68838407601900     11.52311589813600
  H   7.49769726533059      7.72317088407124      2.00332713192419
  N   5.71160358506453      5.49628480898909      2.86524746993731
  N   5.63386850945132      4.75373553332028      1.74227246119396
  C   4.59766570204069      5.15007275249970      0.93848042183632
  C   3.70003626374101      8.31016973274475      4.12971287571725
  N   5.60827069695882      7.01452042975217      4.87092432570838
  C   4.70145047488233      6.40493038973088      2.79033307196913
  C   4.63419885382369      7.28442565493831      3.93937863114786
  C   4.30399497338985      4.49940926109359     -0.33673475023024
  C   3.98055657735071      6.22398670502289      1.59797987159799
  C   3.75583031132998      9.07113409369702      5.29808930937799
  C   4.74965333243696      8.79204425810837      6.24849011067678
  C   3.03847959855875      4.67661007496106     -0.93342055209963
  C   3.70235534698437      3.25916750227486     -2.78584901298377
  C   4.96194136770232      3.07736572051452     -2.19770221110274
  C   2.74301019270387      4.06123971166915     -2.15137115228822
  C   5.26664408365376      3.69452014520690     -0.98233683652638
  C   5.65515980929205      7.76325057644478      5.99665982796417
  H   3.13790744056217      6.79775211292436      1.23768167194503
  H   2.28160166303825      5.27760471964735     -0.43228556148993
  H   6.26288925261059      3.95241074417465      1.61972206225169
  H   6.25784954261703      3.55907275937554     -0.55057232306972
  H   3.46880374987922      2.77800771839717     -3.73349925929060
  H   1.76199184528483      4.20034013949959     -2.60133321492258
  H   3.03716711733109      9.86966083913885      5.46745371521365
  H   2.94536790919683      8.49804440138477      3.37031390944533
  H   4.82539394729582      9.36167150605857      7.17079582485163
  H   5.71130333439262      2.45927403374750     -2.68781864927811
  H   6.44913392865367      7.51314353043328      6.69432181409252
