62
Coordinates from ORCA-job AGIZEX-OH_1_4_tpss_d4_lanl2dz_631gpol_Fe2.opt
  Fe  6.96932343789057      5.22951293856546      4.46110561518457
  S   9.11107735514183      4.50013424995440      0.68252609597852
  N   8.11298138374103      5.44635174716389      5.97934260219467
  N   8.08339053578311      4.02202125073795      3.27346685906867
  N   8.21160578896525      4.77096485222774      7.13278730406667
  C   9.30702961348104      5.16482873478763      7.85028793573349
  C   10.16497144764481      8.04211575671862      4.36699377656247
  N   8.18724386612224      6.76988720356117      3.81816714010244
  C   9.15430574660924      6.30927382692683      5.92373091035490
  C   9.19728676285757      7.08740746783450      4.68870058667122
  C   9.64583037293014      4.59074632051098      9.14972238928387
  C   9.93224043474340      6.16967970723734      7.08457639399014
  C   10.09989425256986      8.67720671762987      3.12127507117502
  C   8.55063745972336      4.21352386027301      2.17653110832705
  C   9.07492712279256      8.33812891809520      2.23263701584557
  C   10.97969828540160      4.63004676967786      9.60550256829272
  C   10.32544353878927      3.47928461539590     11.63836637139020
  C   8.99658508053960      3.43861801886122     11.19246940128113
  C   11.31389869922486      4.07739885221041     10.84374462478035
  C   8.65509182082383      3.99282442004673      9.95699306581966
  C   8.13668760456805      7.37606002966487      2.61913064663144
  H   10.81850420740592      6.72203458827712      7.36574006431741
  H   11.75376853178506      5.06823220964728      8.97817020534701
  H   7.54376071610257      4.01436927654008      7.27916593431337
  H   7.61379082895477      3.98777640736190      9.63556023804329
  H   10.58907808466821      3.04789850127275     12.60182111283273
  H   12.34659435233482      4.10517840549925     11.18497776418593
  H   10.84663495770248      9.41886442132942      2.84716887102587
  H   10.95661857174099      8.27104912986927      5.07576829079484
  H   9.00088194417220      8.79743964406162      1.25098967725401
  H   8.22569208911388      2.98391660076512     11.81106038202200
  H   7.32801186542171      7.06893141739540      1.96286588546585
  N   5.59817874780912      5.35192225700143      2.99167787387293
  O   6.04869529990717      4.02258577468979      5.43484262291424
  N   5.50868947064345      4.67762724858061      1.82944623590434
  C   4.52070421494908      5.16471366307013      1.01823407558495
  C   3.61736427370415      8.20569987546948      4.27438344811466
  N   5.56297351746007      6.98405520271407      5.01195332301397
  C   4.63906311735058      6.30661099596514      2.94648510977980
  C   4.58081661387579      7.20294674839818      4.09923456250361
  C   4.26022421960818      4.61462119886663     -0.31126729629779
  C   3.93438443617402      6.22080231279936      1.72986724154721
  C   3.67620087817036      8.99773716604546      5.42457725963456
  C   4.68793822134818      8.76682375938482      6.36549789311766
  C   2.97181751203748      4.71961376213794     -0.87310134806942
  C   3.74144471536886      3.56394117440176     -2.86230970170873
  C   5.02548005557130      3.45946659044958     -2.30934659279068
  C   2.71753757496227      4.19756154419020     -2.14351875974425
  C   5.28966411047620      3.98452525428752     -1.04181166317767
  C   5.60987721198736      7.74456796370958      6.11648523894917
  H   3.13546931099596      6.85960963522016      1.37843744991073
  H   2.16985111738898      5.18767557981505     -0.30452293059206
  H   6.15206932405334      3.90522784737711      1.67008167219690
  H   6.30230849492454      3.93656103309826     -0.64053062436752
  H   3.53973065394331      3.15584972647967     -3.85069708234377
  H   1.71925917466486      4.27693223171010     -2.56917868649861
  H   2.94033442959604      9.78246731279481      5.58615536271337
  H   2.84003249332926      8.35558257741575      3.52897513641274
  H   4.76275778843077      9.36083155567242      7.27274642882453
  H   5.82540785784309      2.97937868337636     -2.86927316843357
  H   6.41487284965616      7.51750045983584      6.81269018332191
  H   5.24393555402368      3.73834400494158      4.95195082736936
