62
Coordinates from ORCA-job AGIZEX-OH_1_6_tpss_d4_lanl2dz_631gpol_Fe2.opt
  Fe  6.69526236205203      4.75592483311504      4.60540810998397
  S   8.87579349558384      3.54873732051667      0.88250858343453
  N   8.07995214253127      5.31291686872006      6.02623228434643
  N   7.73661325769797      3.53019780845541      3.46417160469572
  N   8.22577325908696      4.79773897418220      7.25821549179509
  C   9.32250724851260      5.30491465786193      7.89818127300473
  C   10.09975071893437      7.75318592573393      4.13063393500226
  N   8.08894292228346      6.47801929134545      3.72004388705679
  C   9.09047904442191      6.18857278051470      5.84533104046419
  C   9.11294482520442      6.84730628873550      4.53755909823929
  C   9.70805945300416      4.90656978634728      9.24994075199381
  C   9.89906313980635      6.21863735802943      6.99582708629223
  C   10.03264580705845      8.28434824510038      2.83837815354385
  C   8.24497910943092      3.53162335231268      2.36888947872714
  C   8.98748642377418      7.89447886859444      1.99425015991589
  C   11.04558030731348      5.06078360792537      9.66877836916853
  C   10.48155693975844      4.13789255611911     11.84021676937699
  C   9.14934705160391      3.98229612618274     11.43138529460341
  C   11.42661343857753      4.67928528641404     10.95708992416822
  C   8.76140444040289      4.36617526053777     10.14572776063790
  C   8.03818011751706      6.98773730376532      2.47924532212562
  H   10.77177743859663      6.83037388425577      7.18068220455803
  H   11.78688483180744      5.45517437804276      8.97622074725500
  H   7.57058841298044      4.05475658187964      7.50647125703226
  H   7.71669541241671      4.27216127086317      9.84985510594686
  H   10.78122076520954      3.83936685566308     12.84272862977651
  H   12.46225886086455      4.79596818090561     11.26953977348580
  H   10.79009518731375      8.98573432210483      2.49534125229818
  H   10.90490331469619      8.02549880738521      4.80871987418682
  H   8.90732983602325      8.27536535954221      0.97952987480091
  H   8.41139946819816      3.57053066702447     12.11679773907313
  H   7.21173839775333      6.65137306416118      1.85807058488586
  N   5.39312250778102      5.08002594784957      2.96152615598281
  O   5.96079994461370      3.65098845477384      5.91487121175404
  N   5.33814831084814      4.57744407339325      1.71216520309861
  C   4.51199441039364      5.29411903018713      0.89143085778701
  C   3.66816108707636      8.00795330751916      4.42434017535094
  N   5.41959246891896      6.51197000792546      5.14294243415866
  C   4.58808934932466      6.16804541607640      2.95393846988205
  C   4.53784783751285      6.93373898803639      4.19765623764690
  C   4.30681788889770      4.95043019095474     -0.51417232428803
  C   4.00725167986678      6.33679374881690      1.68407194214974
  C   3.70890616044893      8.65646989266416      5.66198643413279
  C   4.61000170478200      8.21180879362096      6.63708172514963
  C   3.11770197397599      5.34091487369520     -1.16301028744277
  C   3.89212758177528      4.30572638757386     -3.21539312327460
  C   5.07758773787585      3.91624114116285     -2.57598715656526
  C   2.91512206576899      5.02013060253013     -2.50715696013437
  C   5.28989780318165      4.23801327446717     -1.23324631157920
  C   5.44584172940292      7.13317511641294      6.33418418313977
  H   3.34658596140515      7.12684041760734      1.35373262530609
  H   2.34731051608401      5.87228603938601     -0.60680272453822
  H   5.85863891245031      3.73004004809112      1.50024396145135
  H   6.23230497306117      3.96428360816840     -0.75826922716616
  H   3.73088442242311      4.05508464810880     -4.26192930357316
  H   1.99233753134149      5.31952962135525     -2.99981542180675
  H   3.04263206632486      9.49232233968715      5.86385795499844
  H   2.97082705643314      8.31779795481057      3.65009246765558
  H   4.66673978207634      8.68662355214398      7.61305484330808
  H   5.84201189620412      3.37068096161876     -3.12540289990183
  H   6.16333773614196      6.74718684389108      7.05332308822497
  H   5.87011947319211      2.71317884513347      5.64822434721656
