61
Coordinates from ORCA-job AGIZEX-oxo_1_1_tpss_d4_lanl2dz_631gpol_Fe2.opt
  Fe  6.75101252218025      5.38221166770901      4.54366695985146
  S   9.06492646682538      3.87958126534109      1.11902455920574
  N   7.97977277012777      5.60840768555245      5.99348536579952
  N   7.96743890390152      4.15794474830793      3.70730508768120
  N   8.09986079928930      4.91549160394249      7.13369966483506
  C   9.25978624088326      5.23319669088887      7.79414595059734
  C   10.13816042499119      8.04551111622057      4.28144263304248
  N   8.06783624882269      6.89384110051227      3.80918713027911
  C   9.06697345348499      6.39816550249536      5.88475949790337
  C   9.11767583333572      7.15993266342056      4.64333456210381
  C   9.62905104063502      4.61983135283899      9.06866757646052
  C   9.89734437164445      6.20321293148100      7.00637551642277
  C   10.08363407525283      8.66084659218279      3.02729863516530
  C   8.44756641250327      4.05218716033239      2.60942404243097
  C   9.01393472775627      8.37467463673102      2.17138894444526
  C   10.98682456209615      4.54872292390436      9.44070934165492
  C   10.37058055687980      3.42939912636262     11.50329557324934
  C   9.01838990717455      3.49722438001033     11.13967898425628
  C   11.35184373217332      3.95833089960046     10.65278034421232
  C   8.64633770697115      4.09205291350712      9.93152302446844
  C   8.02632734432830      7.48495639093178      2.60231053748525
  H   10.82647371454706      6.70381841050192      7.24157727631193
  H   11.75268061718221      4.93131382301369      8.76834943393938
  H   7.42549901611038      4.16913435367499      7.29615417727745
  H   7.59003773502122      4.17226786733153      9.67499221925230
  H   10.65821170777300      2.96699387162246     12.44526579427489
  H   12.40268771859024      3.90160692142478     10.92914544690368
  H   10.86972372931174      9.34671631861814      2.72014075870295
  H   10.96004291085523      8.23433348922561      4.96723708184351
  H   8.94372672468281      8.82209974032921      1.18374272864743
  H   8.25329351140513      3.09590286298111     11.80091556127277
  H   7.18218887208231      7.22427917355392      1.97025462301321
  N   5.64810352770291      5.42955934593568      2.98061260578446
  O   5.86770968909804      4.29088468034615      5.40749907017651
  N   5.59633713093399      4.74149849505119      1.82921472281536
  C   4.59802310397768      5.19535307152605      1.01043596631226
  C   3.65640378238056      8.21563642645269      4.32984407744890
  N   5.54019278350449      6.89114294530025      5.04460798425610
  C   4.65765807354157      6.35000760662999      2.92934022696332
  C   4.58496750735749      7.19216704604764      4.11321187932277
  C   4.35609569213424      4.62833517827265     -0.31437130393263
  C   3.96993109510377      6.24059632764081      1.70882665934850
  C   3.70803598228910      8.93419998173352      5.52729223843972
  C   4.68560412754303      8.61270747348570      6.47705586905842
  C   3.08005400737399      4.74862274683086     -0.90166922715959
  C   3.86330899789207      3.54568797631292     -2.85669716256932
  C   5.13453493096510      3.42444604653857     -2.27776005982659
  C   2.83870199656949      4.21026497887593     -2.16743987208521
  C   5.38601479697454      3.96463062713083     -1.01434785782807
  C   5.58500352587821      7.58127022598485      6.19814218532219
  H   3.14866509042421      6.84490533168200      1.34918080389930
  H   2.27574984840840      5.23945608684144     -0.35626199911097
  H   6.26539797328295      3.98841947657283      1.66949116189191
  H   6.38795002170504      3.89329809038169     -0.59028764297413
  H   3.67162436987417      3.12446822768794     -3.84150477281128
  H   1.84975415492468      4.30057554500213     -2.61207731915442
  H   2.99293385356347      9.73091406160380      5.71826930212684
  H   2.90759658203484      8.43321005583384      3.57280153666953
  H   4.75333154844660      9.14442027626043      7.42220084884436
  H   5.93392738309937      2.91688578739222     -2.81333211314450
  H   6.35944406419692      7.28484569609412      6.89844315892591
