38
Coordinates from ORCA-job BEBQEF-oxo_2_3_tpss_d4_lanl2dz_631gpol_Co3.opt
  Co  7.16604960521914      3.48935642342777      1.51494313369284
  N   6.86988105292259      5.43496539313651      0.99039854236956
  N   5.63022742202211      2.83939682292721      0.35170359885181
  N   7.34586224199330      1.56082074810528      2.11767336093815
  N   8.60923110893831      4.07495178459197      2.82459924370412
  N   5.13713863670664      3.86768869549001      3.83488017336523
  C   5.48138574797203      5.94914399312643      0.71975840930808
  C   4.75192780738316      5.10617677651560     -0.31985373752386
  C   4.41676626637991      3.70713006913380      0.19132695929655
  C   5.26615228467744      1.46712396473889      0.84386530202665
  C   6.55447309671827      0.73063613971355      1.14786475980562
  C   8.74356558268898      1.03843004038227      2.28023980579794
  C   9.54740506518119      1.80923944263746      3.32493393087182
  C   9.85744934932343      3.24060981291844      2.90009016362320
  C   5.88917923162551      3.74917150418342      2.93420636080185
  O   8.26729688148469      3.26487266002814      0.28395651974503
  H   7.26131607829966      6.00751513295839      1.74768543153862
  H   7.46594498201753      5.58160037603133      0.16386690163908
  H   4.95047927761612      5.95701924912225      1.67685764620843
  H   5.59095693609432      6.98388214155614      0.36624345103371
  H   3.80383952850875      5.60881515514360     -0.55124660626547
  H   5.31427331753653      5.06265540610983     -1.26535711003111
  H   3.91208658023257      3.74073406799529      1.16254456480047
  H   3.76223908233027      3.19190383163538     -0.52739503319624
  H   6.09173900542164      2.75191780275149     -0.56527161417525
  H   4.64775042602408      1.59644161681116      1.73882558432579
  H   4.67986572263775      0.94862594262353      0.07399275004224
  H   7.17099246960865      0.60212287236423      0.25038118299731
  H   6.35993488815473     -0.25584084389508      1.58830792919602
  H   6.87010998845820      1.54991346631961      3.03134381964467
  H   9.21905549348966      1.08108253931652      1.29331670289913
  H   8.65294940549451     -0.01607805122798      2.57953701709927
  H   10.50161057893074      1.28430108185063      3.46209265333022
  H   9.04350099647507      1.79017320372814      4.30380361710936
  H   10.52297883915267      3.72101984704000      3.63058344377024
  H   10.33138209851500      3.27880114129280      1.91293804513016
  H   8.88401053807221      5.03131315343525      2.56899360180770
  H   8.16169238569212      4.13686659598055      3.74966949442097
