43
Coordinates from ORCA-job BEBQEF-CH3OH_2_3_tpss_d4_lanl2dz_631gpol_Co3.opt
  Co  6.93436197027819      3.53896894882320      1.76967830405227
  N   6.82651803084639      5.44635818074917      0.89835386724066
  N   5.48360744900130      2.87393024104374      0.58394133468328
  N   7.25078518190524      1.52793648273073      2.21451197648685
  N   8.39269042121509      4.09567083419213      3.03804538532412
  N   4.91609307045725      3.91980001491444      4.15510087033806
  C   5.42978073677651      5.99583108577390      0.78012924941421
  C   4.56665178114129      5.11790382354266     -0.12479678720525
  C   4.25431146091858      3.73331666982158      0.44424702641383
  C   5.13676438253822      1.47478991518442      1.02001238383542
  C   6.43221046619099      0.71739160096792      1.26124991621182
  C   8.64773198415085      1.03069423287243      2.38960206390169
  C   9.39512098119609      1.82337246993338      3.46566171468816
  C   9.66054359822230      3.28477586818985      3.10206860787615
  C   5.63625356829396      3.82656479583477      3.22122109125921
  O   8.45526084201185      3.28877041215615     -0.01019418521490
  H   7.38973231301774      6.12747584423447      1.42169430533396
  H   7.25227979907196      5.38497441140110     -0.03557603977176
  H   5.01825805653425      6.05290163338810      1.79383025647374
  H   5.48980907406651      7.01226291138490      0.36947380530578
  H   3.60724413638150      5.63005090346400     -0.27390023544252
  H   5.02109543922578      5.03249322507490     -1.12561565090099
  H   3.79672612549985      3.79654510016125      1.43643288105973
  H   3.56602209512764      3.20260343871492     -0.22892910575214
  H   5.93283160784894      2.82334313353959     -0.34202251991989
  H   4.54816469418322      1.56778519366636      1.93996617895582
  H   4.51889611858583      0.99094346621938      0.25241572213716
  H   7.01284218709968      0.60198839882422      0.33862658344099
  H   6.23744808794429     -0.28352130130083      1.66897338544894
  H   6.78242687768979      1.49647564426608      3.13266523179644
  H   9.14491666642356      1.11332570014916      1.41661252347954
  H   8.61060751243894     -0.03210846959411      2.66833224400565
  H   10.36744026885106      1.34017738846990      3.62613077309847
  H   8.86398867704983      1.76160500910792      4.42842020507720
  H   10.31354509760784      3.74753397407479      3.85360725853473
  H   10.15801239141851      3.36333777628327      2.12848363206903
  H   8.63505118113548      5.08159065756107      2.88062529982186
  H   7.93946877375645      4.08353179453294      3.96274160948359
  C   8.62356910331656      2.47628233511204     -1.22236240163349
  H   8.97026771550316      3.10785921853622     -2.04625151546626
  H   9.32963408224092      1.65885020601946     -1.03999116452146
  H   7.64029571410177      2.06719388844089     -1.46735548878397
  H   9.30217027873442      3.75600294153733      0.13558940736421
