38
Coordinates from ORCA-job BEBQEF-oxo_2_5_tpss_d4_lanl2dz_631gpol_Co3.opt
  Co  7.26782717737455      3.69110115865098      1.59447141178105
  N   6.78755905357503      5.55423235538495      0.71006460286409
  N   5.58644061782117      2.85746460097179      0.35052319694326
  N   7.38899410630185      1.51654114789823      2.11048852818437
  N   8.70958960160651      3.97814748838496      3.11044359717670
  N   5.15808333434794      4.13191508557042      3.82233904166174
  C   5.37440045408466      6.01943606595743      0.54248739864655
  C   4.59446339454637      5.07667393442457     -0.37325150160475
  C   4.35261691637271      3.69812747758948      0.23662518697510
  C   5.28429191166353      1.49315018213227      0.85558785585089
  C   6.58646127703361      0.75530883463811      1.12023006709136
  C   8.79118012717462      1.01064200732096      2.22799130727677
  C   9.59482659585798      1.66330714129619      3.35128204914539
  C   9.94398422287291      3.12835154693267      3.09156248788349
  C   5.95866239764342      3.98080060011287      2.96602156551539
  O   8.41289668840450      3.44279477321294      0.42029459043435
  H   7.28631780881420      6.20627658132272      1.33266652789393
  H   7.28602189802096      5.56993038025903     -0.18962007783802
  H   4.92770697361784      6.07961436337670      1.53953849385716
  H   5.40667308870414      7.02808963516718      0.10525211345090
  H   3.61231696497398      5.53121298699101     -0.55688319882778
  H   5.08097865706293      4.99442941479406     -1.35780009395248
  H   3.91389105135522      3.76924778003070      1.23762008018313
  H   3.65185975925098      3.13930980676888     -0.40574110280754
  H   6.05135540720699      2.79523267887167     -0.56576590418615
  H   4.68918182577575      1.60466874326916      1.76944490361751
  H   4.68518287554637      0.94664482579401      0.11301884673482
  H   7.18943587270245      0.65942759400893      0.20935255100577
  H   6.38018865888015     -0.25239313688521      1.50866339128878
  H   6.91988248415102      1.50232190968939      3.02648692315095
  H   9.26990371518607      1.15220933866988      1.25142307190253
  H   8.72201747711916     -0.07349148215483      2.41705528869954
  H   10.53705132399550      1.10799304903288      3.44498462570376
  H   9.07903118160432      1.55208877014538      4.31776119297786
  H   10.62045884606613      3.50065689942182      3.87387511764724
  H   10.42284259769148      3.26626055338571      2.11605724745314
  H   8.97041386935744      4.96674431542439      2.98543954341223
  H   8.23770978623519      3.92003059213757      4.02230907280691
