39
Coordinates from ORCA-job BEBQEF-OH_2_4_tpss_d4_lanl2dz_631gpol_Co3.opt
  Co  7.30847602283494      3.52033707987533      1.39931730854981
  N   6.83702878193199      5.52452679973606      0.86816076288551
  N   5.52809946937837      2.80216634271426      0.31948988031016
  N   7.33181751681247      1.51400280481070      2.12230031865811
  N   8.79250415701588      4.09131000979871      2.91844532111722
  N   5.32607190076486      3.97286785781485      3.69782123729500
  C   5.40506561103997      5.96256962220194      0.69169734578271
  C   4.64001529800473      5.07476722751982     -0.29053439176582
  C   4.31838320159825      3.67481336352854      0.23687225422048
  C   5.24157098266355      1.43132525032402      0.82137207446187
  C   6.55974250220227      0.72165201326313      1.12068181317234
  C   8.71970687928465      0.98575178545679      2.35149659930564
  C   9.46316707337635      1.73081213376770      3.46335686889883
  C   9.93905930582939      3.13505759343357      3.08920007967551
  C   6.09035865854532      3.81508308169293      2.81276816411761
  O   8.45094555059366      3.27590908986584      0.12322632705055
  H   7.28015680428891      6.13941435674419      1.56133518374269
  H   7.34283342514394      5.66395822697050     -0.01633310898707
  H   4.94194462424793      5.95421268537981      1.68324519741953
  H   5.42466107853636      6.99799182184674      0.32521995186301
  H   3.68315096363656      5.57209764051210     -0.49724413237475
  H   5.16284837649056      5.01949045097794     -1.25877651348379
  H   3.88023308634177      3.71624808121529      1.24082029098987
  H   3.59446910000169      3.18068413101842     -0.42946563304006
  H   5.96719352518933      2.74288525313659     -0.61144924988826
  H   4.62963414443817      1.53469402242393      1.72526236215325
  H   4.66714786890286      0.86531198791320      0.07471686247365
  H   7.18167101312243      0.63220896090051      0.22174211835088
  H   6.36792304888160     -0.28613452297478      1.51450767870440
  H   6.82478919894227      1.50572799476367      3.01665551893172
  H   9.25077949591241      1.04932413306646      1.39527932146441
  H   8.61932800460061     -0.07651270065774      2.62010791959581
  H   10.35497044463245      1.13933535095813      3.70994545768227
  H   8.85895868460266      1.75741672727261      4.38373504985381
  H   10.60331032210403      3.52809382902810      3.87095550281850
  H   10.49782262312148      3.11948128888043      2.14618963634713
  H   9.16222515443514      5.02153461273768      2.68509655820946
  H   8.30236969489116      4.20246416827463      3.81470513534831
  H   9.34328640565874      3.61948944380714     -0.10096307191042
