38
Coordinates from ORCA-job BEBQEF-oxo_2_1_tpss_d4_lanl2dz_631gpol_Co3.opt
  Co  7.16284791830688      3.48924999596749      1.51918716937910
  N   6.87100739431401      5.43408794661375      0.99295695318794
  N   5.62913461227541      2.83801039367194      0.35427303077339
  N   7.34579469308732      1.56003513140539      2.11966185382871
  N   8.60481657881298      4.07311230991142      2.82898358367292
  N   5.12653727535810      3.87581968570005      3.83274460922739
  C   5.48400558429246      5.94863005755613      0.71822000698692
  C   4.75655773533771      5.10511109992054     -0.32228587768652
  C   4.41795865712962      3.70735959616266      0.19032397310662
  C   5.26468009123320      1.46660977159747      0.84789342418158
  C   6.55329945931131      0.73023975001594      1.15057873096144
  C   8.74521661769056      1.03969594776751      2.27582519786509
  C   9.55149705149094      1.80873951517483      3.31952552381292
  C   9.85572056618207      3.24224916282148      2.89811194190513
  C   5.88270420208016      3.75087064148807      2.93554613330263
  O   8.26101228148912      3.26786032224813      0.28867126614153
  H   7.26219753456744      6.00609714345363      1.75069432117410
  H   7.46996681586329      5.57537092997951      0.16751324334420
  H   4.95052855328460      5.95868627918502      1.67389217148925
  H   5.59585355795791      6.98308759550646      0.36368854406592
  H   3.81002479894783      5.60889279718283     -0.55683051525432
  H   5.32158401205621      5.05929151396002     -1.26600626118363
  H   3.91021074517736      3.74322772886096      1.15988254977290
  H   3.76438588844520      3.19208015284181     -0.52933006347627
  H   6.09475181883557      2.74987307625720     -0.56056770652999
  H   4.64658327922224      1.59678680462449      1.74291384573903
  H   4.67781530153611      0.94856875243429      0.07815020802650
  H   7.16891601175590      0.60286145402960      0.25249101665620
  H   6.35919789109232     -0.25608989603327      1.59143636550948
  H   6.87271062815791      1.54729302270858      3.03455783396921
  H   9.21642560320681      1.08675691047507      1.28709736841019
  H   8.65712332504136     -0.01564856730077      2.57241767804153
  H   10.50764878076689      1.28604333293175      3.45066210006560
  H   9.05221185897889      1.78482935908245      4.30052051864883
  H   10.52158716717337      3.72258731778703      3.62835557062504
  H   10.32593130133030      3.28490520251801      1.90938851670306
  H   8.87622127679729      5.03112393534172      2.57654864798736
  H   8.15803313141286      4.13019382615055      3.75460652556892
