37
Coordinates from ORCA-job COXPAG_0_4_tpss_d4_lanl2dz_631gpol_Co2.opt
  Co  -0.34546400407906      0.41113555613455      4.32715723594363
  S   3.17797746908045      2.03428196316184      7.11773614171830
  C   1.90653511665415      1.46993798083040      6.28354204702583
  N   0.95396210196556      1.02663439089841      5.69659120288493
  S   -3.33437548761682     -1.98218627872292      1.57754781243736
  C   -2.10860891751407     -1.15272119335990      2.25214882367378
  N   -1.21391422989768     -0.53288502151883      2.76505947934768
  S   0.35189119963414      3.98454114610604      1.32579326791598
  C   0.14358295804590      2.30616214499292      1.83825903255322
  N   0.02284492952945      2.16404571944110      3.15564392995137
  C   0.09910766810430      3.38956219634790      3.80484057071391
  C   0.26337344004376      4.47893586662461      3.00560386745882
  N   0.18326436946414      1.25549746672248      0.97074595767003
  S   -1.02688186433360     -3.82217506040336      6.34280222096864
  C   -1.43466978670362     -2.29621981524741      5.55718486417740
  N   -0.40267319270845     -1.47094965207868      5.42337634055141
  C   0.75749737311576     -2.02841642234039      5.94401243590767
  C   0.63360979301975     -3.27978646469855      6.46777149753982
  N   -2.72181297863183     -1.97373832276113      5.21928839970097
  S   -4.00835113010454      1.56886462587032      6.91306017333857
  C   -2.36471144695271      1.07959842432245      6.49745325803192
  N   -2.13743489441629      1.05841599402864      5.18210697226502
  C   -3.26136092873879      1.43950157991459      4.46134512463887
  C   -4.36104463329572      1.74692609785522      5.20310923754431
  N   -1.43484455115067      0.70265748495813      7.40867990549593
  H   0.03563377550749      3.39797802275510      4.88659395642641
  H   0.35283491058922      5.51971825502557      3.28937716391393
  H   1.66931381877588     -1.44389216928769      5.90080252028074
  H   1.39896157110225     -3.90950326565997      6.90336292819719
  H   -3.19293690985557      1.45689117235401      3.37944386146686
  H   -5.33916171573818      2.06448959917115      4.86482196632163
  H   -0.46987114885894      0.68076654070828      7.04824118437492
  H   -1.55074029461377      0.99160564859153      8.37369402830251
  H   -0.22725852926707      0.39563089827635      1.35978593132067
  H   -0.04285547847328      1.44098891001057     -0.00131922172335
  H   -2.78003899218290     -1.16367955196594      4.60351890883998
  H   -3.31317937949857     -2.73881446705739      4.90401697282281
