39
Coordinates from ORCA-job COXPAG-OH_0_5_tpss_d4_lanl2dz_631gpol_Co2.opt
  Co  -0.13786205903039      0.08070245372499      4.18838861943772
  S   2.77785093591144      3.03040331493538      6.17877976961685
  C   1.83757280064774      1.75284436610539      5.84983215246168
  N   1.13243939566511      0.79797195808498      5.63483365845097
  S   -2.63726126364258     -0.01887491821297      0.25915817664432
  C   -2.02522453834769     -0.30413441487958      1.73848971154060
  N   -1.57614272281802     -0.50690647608942      2.83489918192733
  S   -0.19309637770577      3.72192681355425      1.26240545545493
  C   0.13897802225722      2.10133286048383      1.88633959187416
  N   -0.04586502921585      1.99854189739071      3.20343025515069
  C   -0.41290674564464      3.20998353952661      3.76590858303049
  C   -0.57061760057475      4.24327082516124      2.89235319767920
  N   0.64258475047873      1.10030770161007      1.12412967982489
  S   -1.50703515237845     -3.55368216301890      6.85926873848369
  C   -1.61945375841128     -2.27629829766703      5.64438250130790
  N   -0.46781717398171     -1.65053328442114      5.42634098107461
  C   0.55093868260662     -2.17530583384516      6.20391552425968
  C   0.19997159183847     -3.19669033105928      7.03406404400615
  N   -2.78986660308576     -1.91716369104748      5.04784787414519
  S   -3.58380249496650      1.48316591868314      7.17259348358965
  C   -1.99680075391987      0.91576747386406      6.64072196879382
  N   -1.83059331829035      0.95629995765505      5.32164473244146
  C   -2.95758164472794      1.45771101316028      4.68677599414967
  C   -3.99672739620660      1.79750908501573      5.49858134299609
  N   -1.06332555035533      0.42141353878339      7.49799568744269
  O   1.22996474323361     -0.68358132652022      3.16402272592736
  H   -0.56461420575915      3.25421786916884      4.83745660491037
  H   -0.88283692993040      5.25905970816133      3.09887835007691
  H   1.53969179091775     -1.74280466383258      6.10654767768685
  H   0.82394117486721     -3.76250826160571      7.71419441450891
  H   -2.93877098201287      1.55044345757944      3.60778202733417
  H   -4.96104200811975      2.20728001636670      5.22596716699345
  H   -0.11592005356172      0.38971126308090      7.09538736593767
  H   -1.11921628247676      0.70386479876545      8.47103182868415
  H   0.83266410897405      0.22752819611708      1.64775887650366
  H   0.32447616474472      1.00922625241002      0.16414098659508
  H   -2.64314781070722     -1.38575194260092      4.17622567119027
  H   -3.52591706672467     -2.61534946227672      5.01090755181630
  H   2.08702136045350     -0.37901921231180      3.53268784604984
