38
Coordinates from ORCA-job COXPAG-oxo_0_2_tpss_d4_lanl2dz_631gpol_Co2.opt
  Co  -0.39792132959954      0.25510562129739      4.26048504135598
  S   3.21710945482766      2.41750738214260      5.44418886847549
  C   1.85680771437845      1.55651283296647      5.51053385756144
  N   0.83585885554403      0.91711619986734      5.62348791865830
  S   -1.94647228103718     -1.68596985525806      0.50025782104491
  C   -1.76438620824071     -0.91543350032344      1.90873963965856
  N   -1.72448510161854     -0.34402351794921      2.97150267859615
  S   0.18830604463983      3.75343164158543      1.48428910308175
  C   0.17196846545280      2.07406387687812      2.02955457944724
  N   -0.20835898041147      1.95597653093086      3.31066159609515
  C   -0.43620179703279      3.18951099505684      3.90746699535957
  C   -0.29317385667981      4.26673446772014      3.09278699433053
  N   0.49316112743514      1.01647696734097      1.26964979416782
  S   -1.35923309126774     -3.48959150831326      6.59653364947142
  C   -1.67009068100971     -2.09578960560305      5.57117250485199
  N   -0.56290797267898     -1.41675259262579      5.28150308044011
  C   0.57624944070979     -1.99468658295531      5.82431008491116
  C   0.35197201200741     -3.10763947947851      6.57196122079321
  N   -2.92153498068810     -1.71861230423123      5.17803209853230
  S   -3.71269884710078      1.61382878916714      7.15675669633551
  C   -2.13785424202365      1.01355151782507      6.63875392153111
  N   -1.96866309917275      1.05896803304022      5.31774222992663
  C   -3.08334774854578      1.57820291511297      4.67242697084009
  C   -4.11772214724619      1.93391300585935      5.48086099245619
  N   -1.21942542112556      0.49110718852736      7.49469869552847
  O   0.90581009164714     -0.50972452860114      3.37888880563640
  H   -0.69883477595040      3.20952319685311      4.95667192612839
  H   -0.42471122438550      5.31366662965441      3.33195469129721
  H   1.52772685391589     -1.53251457406265      5.59729110897036
  H   1.07132049535799     -3.73149658731797      7.08633963213253
  H   -3.05180159221021      1.64892743989044      3.59188286520577
  H   -5.07381077586590      2.36145522511370      5.20736601206928
  H   -0.26603545270346      0.49469007449860      7.09499342459485
  H   -1.28945790027451      0.75645257541986      8.47189975153162
  H   0.72963630965384      0.17272734673089      1.85779205309446
  H   0.92592770708846      1.15640509035508      0.36475425950715
  H   -2.89103360030323     -1.14146329340138      4.32435276934695
  H   -3.62369146548586     -2.45275761371341      5.15965566703342
