38
Coordinates from ORCA-job AZIPIJ_0_4_tpss_d4_lanl2dz_631gpol_Co2.opt
  Co  4.98799984499218      1.84853687055456      8.81687042074660
  O   5.49372311547961      1.47701164383009      6.80389507023866
  O   6.21620352591879     -0.54711732919984      6.23809287458981
  O   5.67961219673135     -0.07018955587590      8.34157102620488
  N   6.41774154801996      3.00068974991670      9.79600902932278
  N   4.33349225643939      3.79524917366906      8.30621814871785
  N   3.61131398249104      1.73291536649934     10.23014841922450
  N   1.95284974193952      3.45198027825983     10.88247878546375
  N   2.33417836902748      5.90333307705088     11.25666046012395
  N   5.81724253716931      0.24009661712443      7.07720502777819
  C   7.43332982582394      2.55250318317642     10.55578210060082
  C   8.25382130256931      3.46112679323847     11.27029334067784
  H   9.07456762280576      3.06850266711994     11.86614506681179
  C   8.00369903418357      4.82186069437700     11.22020033410507
  H   8.62533473214441      5.52184322576795     11.77688891302182
  C   6.92132011140789      5.30746508228942     10.44776838088949
  C   6.55642286361046      6.69294898206975     10.36173256336143
  H   7.14629771492804      7.42027444190397     10.91690013340221
  C   5.47622173182082      7.09288600140392      9.61805971213799
  H   5.18915903003192      8.14179103977592      9.57872548283291
  C   4.68845931169449      6.13957021669970      8.89259467554259
  C   3.54472553393784      6.47381507902602      8.12940456000267
  H   3.21975135238064      7.51086782938720      8.07331537065079
  C   2.83987746304425      5.47575347983607      7.47761660795312
  H   1.95293083682579      5.71258340495530      6.89491567304388
  C   3.25132918589142      4.12462955599193      7.58298122396334
  C   5.03836433046716      4.76623669833865      8.94808478371193
  C   6.15770158767441      4.34182977357797      9.74047674737155
  C   7.63632644766235      1.06496887713290     10.66002837571728
  H   6.94045721993322      0.64830788362760     11.40393908568142
  H   8.65740071293959      0.83005168077898     10.98146571071444
  H   7.42540747821069      0.56446134826244      9.70805925019809
  C   2.49546953411819      2.99564354558182      6.93460432499451
  H   3.18805362547583      2.33391687396346      6.39869095557367
  H   1.73905033162461      3.37113628040347      6.23693845319267
  H   1.98823882885161      2.39722589276469      7.70563822771344
  C   2.85915286642310      2.61048368056373     10.56431164641044
  C   2.20597226530933      4.73980989615559     11.09098903731057
