39
Coordinates from ORCA-job AZIPIJ-oxo_0_2_tpss_d4_lanl2dz_631gpol_Co2.opt
  Co  5.27989477821207      2.09444856012461      8.53086558971483
  O   4.00374359789760      0.81336469245395      7.60396936257757
  O   4.30645252088123     -1.35743898267283      7.98630039924138
  O   5.62985553524889      0.19043182699554      8.87955590240561
  O   6.33532035947738      2.11339441049007      7.18132965830095
  N   6.54061284172746      3.04278822829191      9.67933246868888
  N   4.59239311746650      3.88160048219608      8.12655976104825
  N   4.00385353473568      2.06686800434780     10.08865631006189
  N   2.05826885749828      3.57255393818996     10.39281425035008
  N   2.05799080974956      5.96569648405040     11.14142991835872
  N   4.61776309201794     -0.19470264351090      8.14142609004414
  C   7.59070127843480      2.55898115253031     10.36052527228617
  C   8.26210624450191      3.39828547811172     11.28938453956119
  H   9.10470971822914      2.98323475459407     11.83736574910811
  C   7.85531741084517      4.70445550874628     11.50397416921242
  H   8.36663491810357      5.33279947759491     12.23153166765795
  C   6.77161243072314      5.22793472690785     10.75823502128000
  C   6.25618852095745      6.56351265449839     10.87083838990843
  H   6.70572314264960      7.23394308996732     11.60107396785932
  C   5.21017847322382      6.98730992898794     10.08964360330728
  H   4.80819154789618      7.99175621568929     10.20047606066378
  C   4.61474762567855      6.11782893760459      9.11606808236525
  C   3.54521629875443      6.47154284412147      8.25767305968919
  H   3.09887898555707      7.46052181825385      8.32806232782216
  C   3.07898973812311      5.54689126256575      7.34013226456970
  H   2.27049784427579      5.80124525090166      6.65936655420464
  C   3.61877408211358      4.23479727852136      7.27298546624847
  C   5.09813254568659      4.79584124187927      9.00628813854283
  C   6.16017024335443      4.34288040905902      9.83888091951069
  C   8.02795044972382      1.14292512682048     10.12158485386069
  H   7.32458420294412      0.44018996954971     10.58720069658300
  H   9.02470760987518      0.97739309773275     10.54526781973751
  H   8.04076186856278      0.93121344981310      9.04632689890478
  C   3.12389337159967      3.22270650276078      6.28161109526848
  H   3.96528791797402      2.64075007978784      5.88930533359148
  H   2.59675065191927      3.72244246463963      5.46159414181179
  H   2.43176568961204      2.52059622179445      6.76532979987714
  C   3.09846166321553      2.83756414351525     10.25892462020956
  C   2.11041648055194      4.82745191209376     10.82310977556435
