38
Coordinates from ORCA-job AZIPIJ_0_2_tpss_d4_lanl2dz_631gpol_Co2.opt
  Co  5.21010131309349      2.14905319955098      8.39745716224553
  O   4.60148298501009      1.15808621857046      6.83187576040867
  O   5.32154180363086     -0.94674962722700      6.60264528694132
  O   5.97732712571651      0.36933559482592      8.28790593226315
  N   6.26840771002116      2.98370634816924      9.78235435089345
  N   4.56210594105000      3.93604539991891      8.06897068945634
  N   3.57932416386837      1.63304135819293      9.60280371193265
  N   3.33539644875071      3.32929918920602     11.40796132904365
  N   2.74332849143602      5.74325646506204     11.05218619733534
  N   5.30034256236256      0.11034428828989      7.19367428965448
  C   6.99048790886503      2.41107247808770     10.76945472322666
  C   7.71926055526167      3.22236246339540     11.67447793875905
  H   8.30898635660103      2.72755590513634     12.44251261104317
  C   7.67386250000254      4.60546256672565     11.60439347863683
  H   8.23176367324044      5.21786497758877     12.31072998089132
  C   6.85319496849626      5.21881517754993     10.62904222131375
  C   6.63192051511093      6.63232050383083     10.50893217247675
  H   7.16652625309653      7.30034591221856     11.18175905561278
  C   5.73224834049050      7.13299056117969      9.60193289687563
  H   5.53668502041414      8.20225913103237      9.55250667350387
  C   4.98560344406157      6.26099882388804      8.74164841602396
  C   3.94507585315461      6.67323316567671      7.87813156293267
  H   3.68861761189414      7.72783289988263      7.79964688346736
  C   3.22078239000000      5.71474615291355      7.18963179565113
  H   2.38314089526280      6.00291346484028      6.55916238244647
  C   3.52340396587488      4.33517433597384      7.30419111479713
  C   5.24735743017877      4.87329816378030      8.79813096454959
  C   6.17468133167934      4.35209350501167      9.74047719232348
  C   6.97699543694180      0.91477014092284     10.90307221015621
  H   5.94967032948187      0.54014987704732     10.82018960943195
  H   7.39682132255444      0.62024947006043     11.87112065125884
  H   7.56283879229251      0.43851668590201     10.10646540325842
  C   2.69065467433660      3.29091817030745      6.61706600349028
  H   3.22613648377871      2.85372504533924      5.76435819076248
  H   1.75650550948206      3.73374805476719      6.25456813064727
  H   2.46516881241456      2.47607295532003      7.31594970626123
  C   3.42335567542619      2.47760212169129     10.44637409664561
  C   2.99209540466557      4.59248885536991     11.17193922338021
