38
Coordinates from ORCA-job AZIPIJ_0_6_tpss_d4_lanl2dz_631gpol_Co2.opt
  Co  4.82779376626310      2.33699298542146      8.93892884640977
  O   4.23371866851516      1.12186107411401      7.18205961977989
  O   5.81319588197971     -0.22012246303147      6.38155475580463
  O   6.18133375912956      1.09208385534978      8.14221449395082
  N   6.22182089282286      3.33409160310013      9.99884132002174
  N   4.44376140948517      4.10531171172361      8.12518966460130
  N   3.46321655043107      1.76298164311404     10.10605481626398
  N   1.76557169754012      1.90574006805976     11.88076022780730
  N   1.04406410723957      0.54197677230917     13.84314725155899
  N   5.41052363366190      0.60834160252955      7.17613070661811
  C   7.11195939680565      2.88241814625551     10.91723792869690
  C   8.06363702848393      3.74244302371208     11.48034919159638
  H   8.75164236539326      3.35270557769905     12.22629285444429
  C   8.11939912983805      5.09745307862053     11.08990502423048
  H   8.85917331841067      5.76607929113065     11.52737267382103
  C   7.21820539113648      5.58528447161135     10.13390179510454
  C   7.19272223043869      6.93885873773349      9.65681483786947
  H   7.91721642441144      7.64602267774062     10.05850226893675
  C   6.27693635859260      7.34003210997328      8.71727521040381
  H   6.26275676166106      8.37190427501522      8.36849896427033
  C   5.31011482144361      6.42553976848408      8.16930579717188
  C   4.32834119175648      6.78817955448807      7.23680226094716
  H   4.27286404460949      7.81198831231583      6.87153990724013
  C   3.39299308405432      5.81497056394981      6.79821078049060
  H   2.60431409681939      6.08802842581911      6.10138929268881
  C   3.46207922465215      4.49984511853928      7.24684894516402
  C   5.33791568704931      5.07056272114964      8.61786319208475
  C   6.26276879143350      4.66573671864006      9.59069773244578
  C   7.01663307564942      1.42827198339735     11.29688844101615
  H   5.99083091816164      1.17590882543284     11.60035510971484
  H   7.69525893322332      1.19170916035560     12.12338620367651
  H   7.27140298303364      0.79121439797547     10.43853781702056
  C   2.47112524972063      3.46376442928614      6.79429971760419
  H   2.94496086292879      2.73143716208916      6.12796719124595
  H   1.63918021609321      3.93852578094400      6.26259293853156
  H   2.07197868902986      2.90496243018605      7.65188202294712
  C   2.66982534013170      1.77090800089762     11.00703557704697
  C   1.43196401796883      1.14098640386770     12.89906462077131
