40
Coordinates from ORCA-job AZIPIJ-OH_0_5_tpss_d4_lanl2dz_631gpol_Co2.opt
  Co  5.35929456420159      1.90866035613188      8.39733297196791
  O   4.01752535832589      0.49932806379258      7.50780286179094
  O   4.40250971410283     -1.65674997571146      7.84724507723309
  O   5.72948543335790     -0.10847353606366      8.72304073312680
  O   6.45764176707329      2.08418477213382      6.95952263955969
  N   6.60821188358917      3.07492329352437      9.71659376128698
  N   4.65199165481847      3.95862242811479      8.03904353652009
  N   3.99447804877718      2.00318208705188      9.89693829804766
  N   2.15604218301781      3.58269458214389     10.39277290627568
  N   2.22926795366136      5.89294333724807     11.35530429483076
  N   4.69585332802139     -0.48453252336551      8.01282359524900
  C   7.59466501686762      2.60599259264478     10.49456573758272
  C   8.23427331378853      3.45430020440520     11.43459377893211
  H   9.03225793443534      3.04800225672450     12.05170645616052
  C   7.83191055310081      4.77117687561165     11.57027895569627
  H   8.30302181569244      5.42442813313679     12.30357868731023
  C   6.79307025659275      5.27742912426993     10.75149433805121
  C   6.29446664226790      6.61929259680723     10.84502862062397
  H   6.73682495811261      7.28707333344917     11.58237324154600
  C   5.26399921621208      7.04386263228310     10.04848579725992
  H   4.86126061917096      8.04941881406892     10.14872116305422
  C   4.67777966573753      6.16602720964390      9.07890183418161
  C   3.59124925779454      6.53703706035657      8.24875185227449
  H   3.16438174613959      7.53384636893047      8.34041198454444
  C   3.07098818338362      5.62361346957636      7.34998795952870
  H   2.22810928677877      5.88519425001591      6.71455212647178
  C   3.62312861097741      4.32017720223873      7.25870860568302
  C   5.16767419313707      4.84059634033706      8.94268042094664
  C   6.21972951790041      4.37681428465546      9.81262515293564
  C   7.97786717158448      1.16001399803755     10.33844106464550
  H   7.15915864067876      0.51005748285065     10.67446101273669
  H   8.87675894146419      0.92789998119287     10.92021614677250
  H   8.15772000164151      0.92498877506892      9.28185278420223
  C   3.05791410664195      3.27624211227620      6.33323778628688
  H   3.85470335632042      2.64512591410722      5.92363805142877
  H   2.49246374910791      3.73637579207913      5.51494080028012
  H   2.38172329585174      2.61279445037975      6.89125360428501
  C   3.14544475426589      2.79893095198648     10.18520689476394
  C   2.25157883650734      4.78816800968544     10.93164266321095
  H   6.37637446889860      2.91971689817915      6.45558180271475
