73
Coordinates from ORCA-job AKITET-OH_2_1_tpss_d4_lanl2dz_631gpol_Mn2.opt
  Mn  0.10578147443651      0.12975653012581      0.06892910380754
  O   1.41927344704319      0.29208812163725     -1.44580051112660
  O   1.55050670607969     -0.14077698940339      1.39345028620427
  O   0.09074018954451      2.15105640991664      0.25774570632382
  C   0.60393929163077      3.13372736779749     -3.60937121276124
  N   0.77928139197819      2.24944197663361     -2.45928285467557
  C   1.34470546306575      1.02837490283460     -2.50136114814160
  N   1.83114418250995      0.55186324329880     -3.67110144056615
  C   2.46996355376025     -0.76394341254342     -3.77745332593897
  C   4.01167791494879     -2.45214641441584     -0.03236464991160
  N   3.04226014624718     -1.37121992587665      0.14700513029910
  C   2.50772906777904     -1.01279482173350      1.32303633142995
  N   2.97575116650962     -1.55427727053112      2.47156321919471
  C   2.48603128527924     -1.15938556861345      3.79319938184179
  H   2.70253600067274     -1.96819750666948      4.49680291606436
  H   1.40590036121112     -1.00421087821041      3.73819442088308
  H   2.97198836773110     -0.23910028216287      4.14786023626416
  C   1.30612923271254      3.17354815047492      3.56402782337482
  N   0.98014364724116      2.40012840746025      2.36626739812125
  C   0.33428946094396      2.88458616270692      1.28970235075593
  N   -0.10848573040812      4.16618910949674      1.29708432244773
  C   -0.78765547762711      4.77100224583570      0.14906466474078
  H   -1.37674260330597      5.62126079420535      0.50425602610191
  H   -1.45373840949537      4.02692253198407     -0.29580425220304
  H   -0.07120427136733      5.12499241628234     -0.60596785692850
  H   0.05778363878180      2.62593458108430     -4.41639566416684
  H   1.56797824507755      3.49722006385625     -3.99357740028436
  H   0.01758595073393      3.99830797443536     -3.28869666452522
  H   0.46466945082060      2.53021967954045     -1.52585606855813
  H   1.96894796327093      1.20409893928170     -4.43745276200234
  H   2.45994107046711     -1.06601936372177     -4.82810880992355
  H   3.50896309919698     -0.73785953211413     -3.42059182414449
  H   1.89557569427944     -1.48516066431038     -3.18945822273528
  H   4.98020985904624     -2.19906242516634      0.42166536827447
  H   3.63674163187390     -3.39306460596831      0.39322141285329
  H   4.16788351368995     -2.59316227111890     -1.10426853632630
  H   2.60033447084667     -0.93572529048408     -0.66708673492026
  H   3.83714929250144     -2.09064078701769      2.43067469266323
  H   0.39763907498585      3.58355142356796      4.02642940624971
  H   1.78331189490298      2.50278202564208      4.28267524144961
  H   2.00590149325789      3.99271641545283      3.34292585689378
  H   1.33800596929572      1.44572555334792      2.25207503288280
  H   0.23545957887426      4.79027236363181      2.02046651532990
  O   -1.15906287469686      0.20697559757466      1.62836151426308
  C   -1.35546849837164     -0.70599185243534      2.52796883381893
  N   -0.97898778706679     -1.97608549867190      2.32956508370464
  C   -1.16410903571608     -3.06309956890769      3.28972248783971
  H   -0.67503965479180     -2.83240827110401      4.24665098125644
  H   -2.22926698960734     -3.27233069409209      3.46596452834306
  H   -0.70356817151725     -3.96236953410626      2.87401099048966
  H   -0.58386541699204     -2.14746251622095      1.38184441133440
  N   -1.92663507443313     -0.33620088451878      3.70193162861382
  C   -2.40788943576563      1.02436190044839      3.95000780311364
  H   -2.45196603634993      1.18425850129487      5.03110864861142
  H   -3.40855469575544      1.18766905812409      3.52438409723387
  H   -1.70324554866906      1.73130218599925      3.50486223524495
  H   -2.25181647282927     -1.06975901761441      4.32473285295828
  O   -1.30912842523123      0.28366992157599     -1.27787867799868
  C   -2.39284939288633      0.97632412954588     -1.28762412246865
  N   -2.90546652337373      1.51472875476458     -0.15988110429445
  C   -4.18600822279501      2.21772416450670     -0.07864286091643
  H   -5.03280437502862      1.56430746242109     -0.33639200550613
  H   -4.19085339858260      3.09747434748612     -0.73623632920442
  H   -4.31871074902404      2.56265130253381      0.95002485008087
  H   -2.43796262913465      1.20338097791610      0.69663749110462
  N   -3.01376765265788      1.18604122603881     -2.47343238687857
  C   -2.56304739743914      0.54274229843825     -3.71329832663253
  H   -2.91503231854225     -0.49529940982121     -3.77987814187808
  H   -2.95759228101128      1.11390787209822     -4.55839864867312
  H   -1.47118004878080      0.55185155818169     -3.73950317432486
  H   -3.96348046418813      1.54582568680494     -2.45702430050649
  O   0.03503356410489     -1.68123089398850     -0.15435099045542
  H   -0.57937174389145     -1.85759818474202     -0.90049027288612
