72
Coordinates from ORCA-job AKITET-oxo_2_4_tpss_d4_lanl2dz_631gpol_Mn2.opt
  Mn  0.12751923616268      0.01854953141037      0.12105731918076
  O   1.48541855032106      0.24133621491289     -1.22475333947761
  O   1.58160768622131     -0.12566161484978      1.40593619782032
  O   0.12940352832491      2.13671438419466      0.42028198816060
  C   0.81523039670748      3.10529202628720     -3.41595160178870
  N   0.96230815994819      2.23946949299985     -2.24836258250298
  C   1.45197403005182      0.98751377765690     -2.28060141634845
  N   1.94725845211882      0.47599628189439     -3.42746810483497
  C   2.47218263944234     -0.89275470857237     -3.51126174184325
  C   3.63015478320441     -2.98475257268970      0.34917339313657
  N   2.51694934274523     -2.06991685036109      0.59644914872996
  C   2.60054190566344     -0.93926302205165      1.29993003429863
  N   3.74566153983042     -0.60085239675772      1.93117063485415
  C   3.90855341222749      0.62772243518522      2.71009256841363
  H   4.97718302491739      0.78154046219932      2.87992256370986
  H   3.40058846960387      0.56027408211756      3.68227938885039
  H   3.51228611182162      1.47498278157937      2.14217757655273
  C   0.95538324099217      3.03991925444487      3.87588589714930
  N   0.75612238444911      2.30913871964583      2.62432058444699
  C   0.26279743471170      2.84087277612620      1.48330099221145
  N   -0.13901022804590      4.13698894243522      1.47961277255903
  C   -0.67642747521149      4.78191530710518      0.27942883841437
  H   -1.23320310017548      5.67151047100109      0.58651736204434
  H   -1.35430358423021      4.08442080624332     -0.22091002519623
  H   0.12266906722929      5.08312212731181     -0.41287918097356
  H   0.25504429127011      2.59774835927491     -4.21374195058785
  H   1.79149244571181      3.42731986050750     -3.80560908735721
  H   0.26047947348144      3.99722622973964     -3.11410574959061
  H   0.61021912500130      2.52607817567667     -1.32942984046283
  H   2.15230908053275      1.11122103054302     -4.19337716736810
  H   2.40700017660844     -1.22052803581299     -4.55248997369745
  H   3.51732255027636     -0.94026661234297     -3.17829270305860
  H   1.85672655734951     -1.53862422310717     -2.88061964161922
  H   4.47563904298363     -2.46085951306951     -0.11932435986899
  H   3.96546248927495     -3.46756641051435      1.27812828269298
  H   3.28068629498668     -3.76369485384122     -0.33236043798084
  H   1.59341599350296     -2.19066513925049      0.13471624880745
  H   4.48163825356857     -1.29803459220954      1.98407596015364
  H   0.01692181417186      3.50303886331895      4.20965607603781
  H   1.27336954113814      2.32726186409657      4.64094412853340
  H   1.73016574979433      3.81543676930484      3.78228275088502
  H   1.12096476141434      1.36042454720255      2.51526254718772
  H   0.14022686966414      4.73537189863601      2.25087824348253
  O   -1.12965326575748      0.07164208248575      1.60961346360306
  C   -1.67005165979980     -0.91730691822732      2.27588800393311
  N   -1.59141527122338     -2.17620902135985      1.84770534308114
  C   -2.13057919929450     -3.33909664697433      2.55320488700003
  H   -1.69462913140033     -3.43188659328288      3.55783153979723
  H   -3.22584247316776     -3.28549512915536      2.62821344237163
  H   -1.87215980916028     -4.23071843093546      1.97764294301620
  H   -1.03552313034412     -2.26673371425545      0.97088365422715
  N   -2.31626125595275     -0.60984138608999      3.42311979058883
  C   -2.45362564995678      0.75338174504529      3.93933320901241
  H   -2.47313723152607      0.71355219264854      5.03257034738220
  H   -3.38010485219633      1.22679713673528      3.58453702703922
  H   -1.59174652686819      1.33814848335286      3.60904398508910
  H   -2.82178856794655     -1.35218433844740      3.89710745025183
  O   -1.20294976266810      0.42632645181449     -1.22742788957779
  C   -2.33669623501370      1.03273497120397     -1.20184217350041
  N   -2.84091645090653      1.58104603528248     -0.07199024934556
  C   -4.21004726040918      2.08730704165520      0.05423440283132
  H   -4.95715167870365      1.31677840983158     -0.18593946378677
  H   -4.36320414594301      2.96066517983810     -0.59391888978977
  H   -4.35807738484097      2.40978407751867      1.08795706432065
  H   -2.32737198833479      1.31067778216592      0.76886216348922
  N   -3.02684248130936      1.12069674536281     -2.35830520595151
  C   -2.54198072574682      0.55428535139976     -3.62195666173296
  H   -3.40371906429143      0.22438179521979     -4.20886163787466
  H   -1.97649775357771      1.29942738094069     -4.19683530969606
  H   -1.89870083929741     -0.30003996181351     -3.39940224810398
  H   -3.91877854816453      1.60432522190580     -2.36025308050088
  O   0.00691882403853     -1.62951287148693     -0.20055850093022
