73
Coordinates from ORCA-job AKITET-OH_2_5_tpss_d4_lanl2dz_631gpol_Mn2.opt
  Mn  0.13501987179059      0.12290561602370      0.08702220926891
  O   1.52340125999138      0.23347549963622     -1.60010654316382
  O   1.64534877828826     -0.14081565818122      1.36997052156478
  O   0.18269710730974      2.10867757543994      0.22693544446833
  C   0.81057627473248      3.15504438513214     -3.68627686657234
  N   0.93029316608522      2.22136038103080     -2.56887685242822
  C   1.48095485519693      0.98643755785479     -2.63440464999754
  N   1.95434266782207      0.53934740423995     -3.82417762379590
  C   2.58224946519304     -0.77679455351836     -3.96703989264283
  C   4.12726665115708     -2.36735393876992     -0.14969666165717
  N   3.14750280489311     -1.30431435387315      0.07617497525488
  C   2.60089927835777     -1.01629979010278      1.26432028441864
  N   3.04127728878287     -1.62690396513198      2.38607534124752
  C   2.50749482645255     -1.32841313553883      3.71678873814313
  H   2.67889850407868     -2.19669747130123      4.35939032054777
  H   1.43404748628428     -1.14381083141248      3.62954602178664
  H   2.99971037184654     -0.45231740006495      4.16212355151664
  C   1.32285377958694      3.19123690199249      3.54233172913565
  N   1.10223812404107      2.43064961020911      2.31255067935564
  C   0.37369042812214      2.85417723427166      1.26816954344557
  N   -0.18727291393928      4.08580763769812      1.29157732502850
  C   -0.94740281589246      4.62792498170357      0.16193362908329
  H   -1.59777532972807      5.42376045900769      0.53567301267074
  H   -1.55657672176336      3.82753349951720     -0.26509907354886
  H   -0.28476659509166      5.04227956386706     -0.61093827902362
  H   0.26300378966554      2.69862531225142     -4.52263531810245
  H   1.79341218019065      3.49995676311314     -4.03979543840652
  H   0.24680890039113      4.02709322743836     -3.34481674299031
  H   0.64345583582587      2.49847922794495     -1.62951898412685
  H   2.08571639086125      1.20687371684878     -4.57807345589981
  H   2.53941113237360     -1.06799823303724     -5.02012603441138
  H   3.63185563907900     -0.76212376097370     -3.64093704820093
  H   2.02273303103361     -1.50112259051541     -3.36875757586211
  H   5.08199394142631     -2.14109488246864      0.34572756747748
  H   3.74672235323107     -3.33634249142137      0.20176395394957
  H   4.31169297340000     -2.43426190010336     -1.22424406146356
  H   2.72111430153726     -0.81905839558580     -0.72343632905772
  H   3.88633937082343     -2.18731704409985      2.32878252233705
  H   0.36882865241629      3.46860415425838      4.01176635484843
  H   1.88015265016642      2.55864498361333      4.23721485709947
  H   1.91706009288743      4.09687338882217      3.35435230110946
  H   1.48935084684782      1.48702744492923      2.21146075930684
  H   0.12134254595070      4.73860686959691      2.00601162644924
  O   -1.21621460874219      0.32063213583563      1.81301803547893
  C   -1.47141604852556     -0.58044482254581      2.69688529237010
  N   -1.07334419922198     -1.85735133047627      2.52463861630424
  C   -1.34128200001509     -2.95305421838430      3.45603442676747
  H   -0.91067135991061     -2.74244007691721      4.44496891811335
  H   -2.41905073356427     -3.14657463956687      3.56134849953185
  H   -0.86893017957470     -3.85582532482719      3.06121427726825
  H   -0.67187352431858     -2.04782650112880      1.59214066166166
  N   -2.11570747732534     -0.23271920422358      3.84038222154098
  C   -2.61218999895030      1.12079834208145      4.08815891344212
  H   -2.57801750069004      1.32082196706503      5.16353316315628
  H   -3.64628353602567      1.24444978045756      3.73540192412088
  H   -1.96412375576503      1.82655010158518      3.56276192614979
  H   -2.42982926402885     -0.97083761482602      4.46314458488316
  O   -1.32884857343854      0.26876193965736     -1.24770577928398
  C   -2.42648652021236      0.94313601609327     -1.23828098194684
  N   -2.94588063970840      1.43532590966401     -0.09376362263532
  C   -4.23420046957623      2.12239225293950      0.00448039673421
  H   -5.07106918549185      1.46951373828244     -0.28422883414269
  H   -4.24513284759860      3.02671296734296     -0.61925689052695
  H   -4.37770601971797      2.42521595753129      1.04480319123309
  H   -2.46813013823813      1.11742005578120      0.76042684061574
  N   -3.04468876928185      1.18022198334300     -2.41776582984110
  C   -2.55983391132326      0.61674771368553     -3.68358892132072
  H   -2.90631296790386     -0.41573506576546     -3.82238339013829
  H   -2.93519053154813      1.23832688829570     -4.50144914746640
  H   -1.46778539298207      0.63217014801461     -3.67839638998832
  H   -3.99221432771401      1.54543015073518     -2.39976496476149
  O   0.01611191366706     -1.68890008512994     -0.04964819823752
  H   -0.60733067397889     -1.88690216494046     -0.78274477724487
