120
Coordinates from ORCA-job AWETUU-CH3OH_1_1_tpss_d4_lanl2dz_631gpol_Fe2.opt
  Fe  12.28420666087410      4.31241549212806     14.53568468008728
  H   13.60683738753415      3.82639644036517     15.01965997249926
  O   10.19305566250000      4.77053127544200     13.92150653190985
  P   12.05411879761579      5.21430233792069     16.57402108503653
  P   13.41743753040242      6.19743256308322     14.13370992983115
  P   12.76092033963566      3.30961729796532     12.59961004356170
  P   11.51367839129512      2.28405848819968     15.08715239417161
  C   12.07862422295215      7.04960524905857     16.38839979143966
  C   11.55146665795798      7.95132279542752     17.32874770251464
  H   11.00603403017086      7.57735559437680     18.19330048423385
  C   11.73678589493185      9.32726731820971     17.14978988062872
  H   11.32019106480928     10.02949145887448     17.86992151364413
  C   12.46824468241556      9.80159593761841     16.05047272356475
  H   12.62212690921366     10.87159284273763     15.92047180489389
  C   12.99692767842260      8.90543269804739     15.11385307218161
  H   13.55554301000163      9.28321187397229     14.25987043299872
  C   12.78220061579372      7.52452701863731     15.26300388942168
  C   13.50657965768482      4.93132425350226     17.66095250589514
  C   13.86671188598996      3.60009631571187     17.94205407841993
  H   13.26806104485207      2.78399737341213     17.54539429606448
  C   15.00416319969488      3.31429008433276     18.70202449898261
  H   15.27185661857485      2.27818752321398     18.90345903183714
  C   15.79861436602580      4.36217299813251     19.19099324414464
  H   16.68899978346239      4.14366921113175     19.77846727046968
  C   15.44328281713985      5.68944984219348     18.92239148503288
  H   16.05905066645039      6.50572872836590     19.29596701497053
  C   14.30289563835268      5.97615436105170     18.16061891608951
  H   14.04760180087345      7.01099174604744     17.94517007717687
  C   10.63683779497235      5.00953884424953     17.71976539457317
  C   10.80869021147735      4.97623515183492     19.11608163827968
  H   11.81085431553919      4.95465145419826     19.53960007256550
  C   9.69162744633204      4.98521947234835     19.96098436657454
  H   9.83112272826364      4.96330745827696     21.04072954966887
  C   8.40100531012506      5.03154684426790     19.41948968889998
  H   7.53395859431925      5.04462147383071     20.07792463618405
  C   8.22536185070197      5.05094428449891     18.02877406977204
  H   7.22249565627597      5.06692206720866     17.60591588048218
  C   9.33673380979327      5.03393851010019     17.18224940969552
  H   9.20476058345837      5.01433307279615     16.10343235165924
  C   15.22016122776595      6.23379306171918     14.56748287447000
  C   16.00580543246527      7.34851173469191     14.20423519854278
  H   15.57679157180737      8.14491095069522     13.59929057811056
  C   17.34418900985946      7.43534117863779     14.59838928261005
  H   17.93785015185228      8.29951708373623     14.30475751246241
  C   17.92088780163024      6.41204695131643     15.36487193091213
  H   18.96426959516450      6.48060474138081     15.66878266877836
  C   17.14896950519402      5.30594939097040     15.73718478866415
  H   17.58044255369319      4.50949430361700     16.34068787150757
  C   15.80809469537506      5.22059974278044     15.34405376259710
  H   15.20952389614648      4.36509897768487     15.64529601798174
  C   13.43854572562706      7.05015468548587     12.50033570961079
  C   12.47183809849482      8.01122857284319     12.14662342793626
  H   11.72393892393732      8.32224066418967     12.87359464585951
  C   12.48891776113722      8.61029363889706     10.88101946907168
  H   11.74565330911542      9.36624892539410     10.63189651187574
  C   13.46859620643877      8.25109055797009      9.94786842600377
  H   13.48696128411754      8.72118603357631      8.96622610696911
  C   14.42782823257916      7.28623767978831     10.28269409631618
  H   15.18893988381892      6.99811511216821      9.56065388671253
  C   14.40941738912504      6.68758665775380     11.54519284160831
  H   15.16639906435650      5.94719653620179     11.79791607208155
  C   11.44822892923347      2.03616026084508     12.33752291072675
  C   11.07253575267631      1.51980221345269     11.08386002072177
  H   11.50924954741592      1.92978506800282     10.17509781693810
  C   10.14270730048377      0.47658784777178     11.01269147262682
  H   9.84301565052417      0.08133532209783     10.04358293089321
  C   9.60144290520744     -0.06502806501357     12.18885244287456
  H   8.88363912059863     -0.88160399956168     12.13071631008959
  C   9.97315527453125      0.44445374214247     13.43813688886717
  H   9.53673241813309      0.02847435658405     14.34382396334719
  C   10.88439776301205      1.51204378548414     13.52039712246458
  C   12.77585635449280      4.08611259920817     10.93376291838545
  C   11.74489539246287      4.98913411366463     10.61647200482374
  H   11.03567523890459      5.28315409619299     11.38765169699293
  C   11.62883153074903      5.51667402450963      9.32953195670942
  H   10.83062428034348      6.21948182368796      9.09890603223257
  C   12.55219291717115      5.14767015055662      8.34027044965023
  H   12.46549893172778      5.55781181249291      7.33556958222025
  C   13.58675749292785      4.25568337835249      8.64696599762598
  H   14.30413213852279      3.96748213280397      7.88015227594440
  C   13.70118029194316      3.72470666876295      9.93899143370619
  H   14.50095117676385      3.02418791402753     10.17047756655341
  C   14.29673383553657      2.31177974321543     12.59513183549551
  C   15.49955014119933      2.96734168522000     12.91797774847166
  H   15.49088138798991      4.03193484993616     13.14003648374160
  C   16.69913776287587      2.25411553074561     12.98991665869459
  H   17.62076224539044      2.77395816590539     13.24706582026445
  C   16.70644132417102      0.87332990019809     12.74226929831958
  H   17.63797518926033      0.31292057950284     12.80392497629148
  C   15.51390049422382      0.21570885986397     12.41541397232830
  H   15.51544583838823     -0.85656324030006     12.22777662292975
  C   14.31128231376506      0.92970635961811     12.34015048561493
  H   13.38769711199679      0.40679019085953     12.10166802121798
  C   12.70223975803089      0.99820710625753     15.66522311114429
  C   14.08707657648549      1.23617676704005     15.64602612401976
  H   14.45310528391120      2.21272312993624     15.34047005031536
  C   14.98822292170366      0.22844168084099     16.00811586682254
  H   16.05717938510876      0.43119918514225     15.98224278569866
  C   14.51435490871784     -1.03208206340474     16.38947711064134
  H   15.21358279103724     -1.81797261498049     16.67088176470773
  C   13.13412152237914     -1.28259812805293     16.40942588537747
  H   12.76035806828378     -2.26064848957624     16.70793613203706
  C   12.23380365619091     -0.27597606304398     16.04944967733141
  H   11.16445610703995     -0.47691839754722     16.07952147055617
  C   10.08351796650137      2.03703058199431     16.21211556695421
  C   8.76283825188425      2.17233171112037     15.74058281791105
  H   8.58067400608965      2.38943940085979     14.69000195839680
  C   7.67757986180187      2.00708287362355     16.60704017820521
  H   6.66204082622457      2.09092304884633     16.22289598190387
  C   7.89707649408396      1.73815104577025     17.96388448187419
  H   7.05285902777256      1.61136598287878     18.63923585248825
  C   9.20631384392276      1.63836270292975     18.45128023622067
  H   9.38409853251890      1.44312626671880     19.50691330220761
  C   10.29142556155397      1.78518065952881     17.58178711633031
  H   11.30431201538214      1.68456963641066     17.96758732170749
  C   9.78039918058190      6.13763410644292     13.67565104553134
  H   8.70534558229667      6.16675069325089     13.45695699430349
  H   10.35509443211989      6.57690665384523     12.85324811856937
  H   9.99185081614210      6.68117267107270     14.59915584316212
  H   10.04059793301868      4.23315304699383     13.11684839707254
