115
Coordinates from ORCA-job AWETUU-oxo_1_3_tpss_d4_lanl2dz_631gpol_Fe2.opt
  Fe  12.26627447734508      4.33847157937087     14.52758972549007
  H   13.63780141387535      3.79089416694425     15.05977675812955
  O   10.77578917098918      4.93115345267295     13.98166627632632
  P   12.13497591487703      5.10937543514958     16.66237632137878
  P   13.49777206605662      6.17945844068672     14.09018423144052
  P   12.89727550187430      3.35690057969253     12.56970944157501
  P   11.49323653134246      2.30352155367793     15.12842706624626
  C   12.70973115059726      6.85631698821532     16.66635876810487
  C   12.58146065560402      7.68906706104253     17.79302529625724
  H   12.14252365662497      7.30061704197402     18.70978749744867
  C   12.99923859154480      9.01987266521234     17.72234356272772
  H   12.89658946917946      9.66663429207550     18.59179009848046
  C   13.53746941456203      9.52990480329167     16.52876595547701
  H   13.84720863762162     10.57201612937683     16.47472166806882
  C   13.67203594929645      8.70550209918493     15.40938505780218
  H   14.08215344862695      9.10356447938632     14.48345100902392
  C   13.26135989840014      7.36180317674060     15.47857761895782
  C   13.23331902027095      4.30431000185617     17.87932611294770
  C   12.79004695885101      3.27364405280739     18.72842974802698
  H   11.74042078205254      2.99220716876194     18.73675154950910
  C   13.68963132545963      2.61144133661803     19.57091382624067
  H   13.33120769423425      1.81810911942983     20.22381372578800
  C   15.04558659652974      2.95853784799483     19.55975847346522
  H   15.74616371184075      2.44188141175720     20.21354992807721
  C   15.49942460341865      3.97518059719733     18.70669887865110
  H   16.55195724795733      4.25421160798909     18.69937515174547
  C   14.59989681920461      4.64724459593911     17.87370321942144
  H   14.95916899791740      5.44395971928551     17.22399626769581
  C   10.49478410126792      5.23879531736551     17.45411431923209
  C   10.32961479783311      5.26697277771350     18.85441986961473
  H   11.18518236843148      5.12694489930478     19.51211352286413
  C   9.06093076040142      5.47949615874514     19.40497378530732
  H   8.93891414256975      5.49770640401916     20.48683411074332
  C   7.95519671694471      5.67680261811702     18.56742625877244
  H   6.96983393868921      5.84392646176951     18.99967382229649
  C   8.11877914182928      5.66139746638442     17.17600074167845
  H   7.26082176333168      5.81186148853589     16.52364941050364
  C   9.38073541534236      5.44030321541843     16.61633759784720
  H   9.51869169891500      5.40778818284997     15.53598956128462
  C   15.32719705278820      6.09107661445774     13.99088797446461
  C   16.07747987758392      7.14762693841788     13.43267927233360
  H   15.57245630735291      7.99244139343999     12.96907685768190
  C   17.47544371835509      7.11515408410652     13.46555530018575
  H   18.04361051864060      7.93288481939151     13.02538546632462
  C   18.14188731437892      6.04073682900692     14.07112869415156
  H   19.23013977651345      6.02111101901612     14.09805823091602
  C   17.40437644667621      4.99579674685653     14.64063884341246
  H   17.91324148389532      4.15301901507428     15.10452326224905
  C   16.00744800801767      5.01854054783345     14.59488085140937
  H   15.43222008882040      4.19537113571184     15.01115198577216
  C   12.94035181177759      7.13944534285424     12.64610590267059
  C   11.70535981147362      7.80901206900459     12.76182790527046
  H   11.16026509627484      7.77739631069598     13.70325609807208
  C   11.18116925706349      8.50841102602725     11.67119474935303
  H   10.23295131831202      9.03365502051619     11.77227154641322
  C   11.87403793456057      8.53377974318248     10.45260403417508
  H   11.46511346505818      9.08126843362241      9.60515821451533
  C   13.08842343109343      7.84884159880798     10.32295049255638
  H   13.62223207198803      7.85335138344888      9.37484816710252
  C   13.61705499810262      7.14925337031434     11.41263206422969
  H   14.56339094864199      6.62500431314369     11.30609552789250
  C   12.05451181110282      1.72453821429157     12.47146589288635
  C   12.05752324023165      0.94512303202274     11.30018035353735
  H   12.59352732144102      1.29039824956786     10.41839593962572
  C   11.34945726268908     -0.25821313221873     11.26651727226236
  H   11.34626210891098     -0.85930693222207     10.35909092933658
  C   10.62753608947619     -0.68598508401614     12.39355020812368
  H   10.06321046565527     -1.61603525538062     12.35564667600103
  C   10.62683632284170      0.08109099273437     13.56078269119101
  H   10.05981785745571     -0.24618771506423     14.42993075645555
  C   11.34723565339613      1.28850402612857     13.60268213497327
  C   12.38432352982199      4.13824609670705     10.99944277641008
  C   11.19730935930415      4.89688531841490     11.00827699735460
  H   10.69065032630225      5.07448896483812     11.95623194274300
  C   10.69487143236881      5.42205472809050      9.81437702902610
  H   9.78082050563768      6.01238447382872      9.83078608630796
  C   11.37007887410372      5.20352017950212      8.60634076047414
  H   10.97926354961342      5.61903368939875      7.67878982456287
  C   12.54854605397108      4.44600939543812      8.59107389965992
  H   13.07200847086659      4.26618320837069      7.65334605690729
  C   13.05413324655966      3.90790122263951      9.78002378367603
  H   13.96221978734063      3.30872224206944      9.75405361458967
  C   14.66244842164244      2.92859674957160     12.38916254568147
  C   15.57353117282344      3.74792267350704     11.69734776280617
  H   15.21964730740972      4.63312487249650     11.17589128200069
  C   16.93520296839714      3.42807093135908     11.66900855385835
  H   17.62734130017956      4.06834549215888     11.12582245538882
  C   17.40415417683156      2.29859366154038     12.35014432985114
  H   18.46399355875728      2.05054771481848     12.32969398517524
  C   16.50611155544947      1.48548109089413     13.05699966706486
  H   16.86490219259958      0.60252749936069     13.58366582076954
  C   15.14264538654464      1.79444469097846     13.07365844774423
  H   14.44914686200761      1.15312266686031     13.61580292284795
  C   12.47223737756169      1.19609846008843     16.21249294998347
  C   13.85692163559398      1.40176834272360     16.34661549116893
  H   14.30699581026603      2.28341090564182     15.89621605105836
  C   14.64412082011387      0.49730460467731     17.06531758428788
  H   15.71282189903554      0.67675583688234     17.16598699012676
  C   14.05499772066272     -0.62034624410331     17.66887799663483
  H   14.66503854735470     -1.32186383807380     18.23556629369191
  C   12.67579320930713     -0.83655487221749     17.54066802087847
  H   12.21351029813221     -1.70727836322337     18.00260512065912
  C   11.88851193231090      0.05898957915527     16.80965155905283
  H   10.82114272603192     -0.12573981385597     16.70725827344688
  C   9.78728333147272      2.30079643506504     15.76729703226739
  C   8.76815816132628      2.61722670251105     14.84565672652041
  H   9.02187941652126      2.80203920460851     13.80370265571860
  C   7.43944237038286      2.70232667917950     15.26959405927316
  H   6.65694397736314      2.93414102866554     14.54904012981565
  C   7.11621369745282      2.49314406179718     16.61770759509536
  H   6.08056763077500      2.56019295385046     16.94644500088550
  C   8.12633667461615      2.20401609084551     17.54307441496967
  H   7.88188576486978      2.05287068724323     18.59255140720626
  C   9.45711028726249      2.11193034445265     17.12162501649454
  H   10.23286325077147      1.87246310591337     17.84476855566745
