115
Coordinates from ORCA-job AWETUU-oxo_1_5_tpss_d4_lanl2dz_631gpol_Fe2.opt
  Fe  12.05604778886232      4.41611600713232     14.44412514680923
  H   13.48445415296175      3.81819720904787     14.95570268965679
  O   10.57609996297437      5.01744674073720     13.90727463402006
  P   11.96363640450970      5.41160036267380     16.76697572645409
  P   13.47380326794300      6.37146001049765     14.16988163309592
  P   12.64528192172268      3.22008837491166     12.30270673289931
  P   11.40079215225114      2.14431805306127     14.99423252778814
  C   12.11744442415379      7.21512597121323     16.46342427558410
  C   11.59738342351263      8.16686520639948     17.35994027115800
  H   11.06089459173371      7.83311261325508     18.24616942935262
  C   11.76305508436124      9.53315470096431     17.11027084786366
  H   11.35689756088860     10.26373379227162     17.80752227251787
  C   12.44761971097662      9.96150069447895     15.96367480216434
  H   12.57488936354178     11.02490399090681     15.76916588773191
  C   12.96100310045440      9.02411443784474     15.06185473880435
  H   13.47445779913458      9.35978021283232     14.16270987953178
  C   12.79349518632235      7.64838780123970     15.29960070725249
  C   13.39714539921681      5.00808446902945     17.82126558958440
  C   13.76187968927901      3.65047525435664     17.91465884157030
  H   13.17908087606198      2.89843988812748     17.38639792088079
  C   14.88991661001191      3.26727118195767     18.64499675571287
  H   15.16245406489433      2.21489535341265     18.70586276776630
  C   15.67431420548748      4.24299728960994     19.27893850814668
  H   16.55961725624809      3.94942058401030     19.84075177636686
  C   15.32221032411533      5.59582824536317     19.18477444031352
  H   15.93411556270720      6.35383905761972     19.67053057557406
  C   14.18648530633957      5.98086249770181     18.46101358319219
  H   13.92452666331084      7.03401965778871     18.38109522077392
  C   10.48938891983029      5.30095940757024     17.82813156967310
  C   10.56658267374400      5.15712626965014     19.22584858811030
  H   11.53603494939370      5.04313210773140     19.70802008684392
  C   9.39418932668996      5.18270957234672     19.99060725975259
  H   9.45218427654664      5.08043252598745     21.07315056490226
  C   8.15157126764317      5.35372640853974     19.36557606979300
  H   7.24255281663180      5.38269664122328     19.96429290738345
  C   8.07475420120976      5.47969155223224     17.97086051579126
  H   7.10729567829753      5.59676237750598     17.48597692756576
  C   9.23771300651987      5.44245004152796     17.19633010071680
  H   9.18992111357805      5.52079446425553     16.11008706653976
  C   15.25538052942613      6.34559327291986     14.59614052613046
  C   16.09198893245477      7.42184386698077     14.23181633461176
  H   15.70090662111994      8.23320303427389     13.62014479875934
  C   17.42722613862844      7.44294911429304     14.64501668394152
  H   18.06994494081250      8.27204913137256     14.35420962374778
  C   17.93640267394228      6.40163495016946     15.43583353467192
  H   18.97576929604804      6.42492532766826     15.75935660025170
  C   17.10830234108663      5.33565438600997     15.80854774149376
  H   17.49377700446273      4.52860376195649     16.42864171981392
  C   15.77396445201638      5.30528806239760     15.38702337537570
  H   15.12448413713370      4.47844066837890     15.66770705256942
  C   13.36692891900788      7.11017213081588     12.51338934863854
  C   12.21205185035741      7.83828707454064     12.15831359876929
  H   11.42746613242510      8.00463603766744     12.89391879536909
  C   12.08044617352965      8.35333791860315     10.86644188541767
  H   11.19724208025425      8.93373253491525     10.60520126240208
  C   13.07446993062111      8.11353995328538      9.90734754786280
  H   12.96543611410980      8.50949444253740      8.89946733328157
  C   14.20120244604937      7.35229605060341     10.24110985060111
  H   14.96537656446051      7.14851990914849      9.49393937291059
  C   14.34982781811011      6.85058718058304     11.53813893739832
  H   15.23666918650251      6.27354077334841     11.79470428306707
  C   11.38534640860892      1.88815219529898     12.21185464059749
  C   10.97763012275543      1.33266234384359     10.98524289782896
  H   11.39235119960863      1.71842862813716     10.05573263252704
  C   10.04059841772542      0.29424532619579     10.95959066130067
  H   9.72878103742933     -0.12931311777542     10.00658806164005
  C   9.50197826028823     -0.19869378370678     12.15695085642377
  H   8.77209750787731     -1.00595017833230     12.13580931047078
  C   9.89450010693202      0.35146508786681     13.38129874286889
  H   9.46054352119091     -0.01878828495550     14.30843654216982
  C   10.82941571199698      1.40092173219310     13.41743151521857
  C   12.52451583079006      4.01487117154192     10.67059187980145
  C   11.42385067137451      4.86937048950644     10.45867677633908
  H   10.74538855454742      5.08700998396338     11.28367622490068
  C   11.21653214108259      5.42563479001614      9.19336360466766
  H   10.36287021289377      6.07959447316812      9.02487178813308
  C   12.10998180713153      5.15262167012820      8.14725101167521
  H   11.94415721110703      5.58886065343612      7.16347916566944
  C   13.21996115257365      4.32574706109129      8.36621408754447
  H   13.91524324689128      4.11738899589324      7.55451842243233
  C   13.43069778655740      3.75312442403708      9.62625704556715
  H   14.28145571964681      3.09504043355397      9.79540967405169
  C   14.23721279609961      2.32966966328693     12.33810464417522
  C   15.36969292404541      3.05016522771487     12.76689089755362
  H   15.27203836266165      4.10081854252057     13.03401776678146
  C   16.60844217190359      2.41526347475118     12.89197820841370
  H   17.47482359279433      2.98286637853004     13.22765777977305
  C   16.72313270106184      1.04683765920605     12.60305959228571
  H   17.68437446649418      0.54655572357900     12.70950102396078
  C   15.60019001155202      0.32242879183207     12.18249570492941
  H   15.68717797256966     -0.74051978945763     11.96436896835482
  C   14.36008167563145      0.95906795528114     12.04615173128017
  H   13.48875953011984      0.38895553690098     11.73038521315758
  C   12.59342269261880      0.91218119368443     15.63671522424356
  C   13.97505950315799      1.14561322162127     15.52082447958504
  H   14.32178445816174      2.09639921835906     15.12128549255393
  C   14.89301205101399      0.16429001229457     15.91232940267306
  H   15.95928337157916      0.35535139036644     15.80779210151905
  C   14.43740757670026     -1.05450073183385     16.42995803141147
  H   15.15000059364825     -1.81747225385595     16.73912209033073
  C   13.06021387876069     -1.29506223751356     16.55023784244936
  H   12.70428536999263     -2.24183169610673     16.95275933008875
  C   12.14027064330710     -0.32165558833933     16.15006679965299
  H   11.07262108124901     -0.51290045034321     16.24489029471016
  C   9.96006196744549      2.07360940446881     16.09753734182543
  C   8.68357099076150      2.38012195480670     15.58079663567188
  H   8.56411211504246      2.59411668886419     14.52053339116564
  C   7.57396596054942      2.40133731989141     16.42906445786727
  H   6.58796018873224      2.61649350441746     16.02080275923990
  C   7.73066944465000      2.15905343580883     17.80110593161050
  H   6.86524351987231      2.18418262324159     18.46051178225720
  C   9.00226765328897      1.89991817174199     18.32662928101822
  H   9.12921800126032      1.72988463278864     19.39374471840875
  C   10.11537323872564      1.85711813723451     17.48091323440494
  H   11.09901849891278      1.63919817966903     17.89331225808834
