114
Coordinates from ORCA-job AWETUU_1_5_tpss_d4_lanl2dz_631gpol_Fe2.opt
  Fe  12.75089164403825      4.12290437545173     14.69608696005310
  H   14.19000446106292      3.51294544043551     15.17694576783265
  P   11.96530754106265      5.39070242845855     16.63771662656714
  P   13.67738046414290      6.39796527813898     14.15500231832211
  P   12.54407210832597      3.29100622989907     12.40224339359830
  P   11.41484182229379      2.03447519027887     15.09714142454652
  C   12.14787848309728      7.20263047667796     16.37356038619603
  C   11.57642797314707      8.14325593355248     17.25247245875831
  H   10.96104786647654      7.80026529158108     18.08173407955998
  C   11.80399744172641      9.51031690759799     17.06749621109764
  H   11.35955457575555     10.23010467035607     17.75265731223283
  C   12.60924115985190      9.95352433386953     16.00760923048353
  H   12.79377383060074     11.01734535514529     15.86897329252733
  C   13.17444723997297      9.02789137658628     15.12598338249281
  H   13.78879944871075      9.37360441419948     14.29652812894431
  C   12.94131885282484      7.64973634490178     15.29098114159093
  C   13.40806900875651      4.98287110378024     17.69388125512007
  C   13.74276678994632      3.62020015535225     17.84865824496680
  H   13.12626457036615      2.85226150134022     17.38424925159231
  C   14.88132597024928      3.24713332259879     18.56790859261740
  H   15.13092331035814      2.19253922562462     18.67098664507283
  C   15.70426052329461      4.23276835813096     19.13284733723206
  H   16.59627640965072      3.94502240279442     19.68701929384834
  C   15.37976620255854      5.58784021892199     18.98367071566068
  H   16.01877852663027      6.35380857780542     19.41930641395231
  C   14.23757879312330      5.96476915074281     18.26568726444851
  H   13.99950713306388      7.01897242371044     18.14143970484921
  C   10.51000258991784      5.29917308044182     17.73970568547185
  C   10.63094242541110      5.18409948281522     19.13696673774166
  H   11.61578401949159      5.07920136228603     19.58876723826227
  C   9.48633868249435      5.22162093951265     19.94284390808062
  H   9.58398247132122      5.13853773287576     21.02415978045778
  C   8.22149365747226      5.37864395117044     19.36131428836127
  H   7.33380672271368      5.41428668103566     19.99064524344798
  C   8.09642542437553      5.48243189846792     17.96854572575505
  H   7.11321918129797      5.59054132640727     17.51461979460910
  C   9.23433006880076      5.43550719392039     17.15891339391821
  H   9.13478599733292      5.50512590403199     16.07592113592603
  C   15.47765613737180      6.53976390786415     14.48012221086864
  C   16.25936595345157      7.58066713121828     13.93760284465585
  H   15.81342653863182      8.29366363360473     13.24615891383257
  C   17.61208155361150      7.69042738690689     14.27410124420442
  H   18.21118737184898      8.49361748175404     13.84819996623437
  C   18.19536154494373      6.77073302785240     15.15892792418822
  H   19.24895913747217      6.86105936652308     15.41859522964196
  C   17.42243941856359      5.73899986494284     15.70572834036101
  H   17.86748155007387      5.02455978474492     16.39621911129916
  C   16.06923445738900      5.62015289348807     15.36745023062603
  H   15.46660343677442      4.81127468006413     15.77868166706470
  C   13.45112449830279      7.15303644306091     12.50357434337815
  C   12.33929413381833      7.97285689829077     12.22290502480375
  H   11.63574386678346      8.22641349296550     13.01412359437586
  C   12.14839038624242      8.49056752863730     10.93711752903652
  H   11.29691605897468      9.13996936354883     10.73947365945121
  C   13.05032038632429      8.18114965182992      9.91137095165445
  H   12.90301498056674      8.58811879244669      8.91271528915015
  C   14.13888727644667      7.33876552055695     10.17201521099610
  H   14.83551221741256      7.08263996220071      9.37643506963442
  C   14.33494432900838      6.82132817730878     11.45547609820673
  H   15.19307328968373      6.17894551503021     11.64776110080139
  C   11.29549316560299      1.94380778016801     12.28870775493503
  C   10.85571773794143      1.43890793546364     11.04967808831003
  H   11.21121567469246      1.89240994916022     10.12653555109123
  C   9.97423592642388      0.35449140848122     11.00291322360695
  H   9.64154968468990     -0.03061019846712     10.04056544884238
  C   9.52635366315470     -0.24216352751923     12.19125230030087
  H   8.84824637760489     -1.09287869211494     12.15395402506492
  C   9.95054185130157      0.25735654903502     13.42565945969072
  H   9.59501369389786     -0.19799835603672     14.34830094011282
  C   10.82465864680990      1.35849033175894     13.48780109261028
  C   12.44176936658861      4.06909486852712     10.75121886829161
  C   11.37830028488493      4.95924225979220     10.50649670797216
  H   10.69727773388795      5.22714712215917     11.31406037307338
  C   11.19273805902813      5.49704694001794      9.23017708586403
  H   10.36647780781426      6.18096859892959      9.04562945873850
  C   12.07560050037752      5.16403671162690      8.19308262627604
  H   11.93042061978528      5.58460747930206      7.19941842344497
  C   13.14831223163914      4.29649003444488      8.43636652071036
  H   13.83621549049833      4.03906363976927      7.63248875727883
  C   13.33244714066522      3.74596618846049      9.71061018022095
  H   14.15570462649431      3.05791439115939      9.89482175225864
  C   14.13342440955648      2.37506973738401     12.40992342703283
  C   15.29795735086521      3.08806983334739     12.76853490096993
  H   15.23932256133192      4.15398263440255     12.98261191143986
  C   16.52533023689099      2.42999466837810     12.88222768175008
  H   17.41295947813238      2.99188075930190     13.16775711140586
  C   16.60088196708356      1.04871556645134     12.64922836020652
  H   17.55431347648874      0.53175685259353     12.74588794969485
  C   15.45002237015320      0.33330504020082     12.29250858456881
  H   15.50722186478764     -0.73878304477527     12.11290403323723
  C   14.21878239846158      0.99092922425049     12.17364737165231
  H   13.32660174372975      0.42696735178893     11.91024980112833
  C   12.42620622959619      0.66464446350310     15.78220890486577
  C   13.82072321476816      0.70974720754740     15.58933612753247
  H   14.26549452591865      1.58088713524587     15.10931657155300
  C   14.62644254792176     -0.34845265979647     16.02586587937069
  H   15.70267908683195     -0.30420829170389     15.86723110903900
  C   14.04918139318667     -1.45462377669491     16.66195509765383
  H   14.67590340851710     -2.27591355190063     17.00592635740239
  C   12.66074462846387     -1.50542123564850     16.85754838824834
  H   12.21025905843953     -2.36484498503711     17.35145199794472
  C   11.84987807727603     -0.45472199446333     16.41721623542642
  H   10.77377752790535     -0.49771232291337     16.57672931412368
  C   9.90280112122784      2.04488419491619     16.12776623310160
  C   8.62996484996948      2.25046451314769     15.55871010919477
  H   8.52376267441926      2.33702410249723     14.47864560856838
  C   7.49341683631028      2.31434680661213     16.37260449662301
  H   6.51352518301214      2.45352377196884     15.91850217385569
  C   7.61389943742581      2.19159801920857     17.76246014409714
  H   6.72824327816438      2.23571656433088     18.39357470505089
  C   8.87895442976204      2.02123563280343     18.34005529436947
  H   8.98108500838907      1.94139472882237     19.42028553534476
  C   10.01695313867120      1.95853034075628     17.53121200321937
  H   10.99426428713992      1.81728075361661     17.99043262096617
