21
2-acetyloxy-5-chlorobenzoic acid
C     0.661087    7.496341   -3.286447
C     1.604980    6.621082   -3.836359
C     2.539507    5.982936   -3.047831
H     3.168269    5.391854   -3.444835
C     2.565449    6.200006   -1.675894
H     3.200527    5.756918   -1.125878
C     1.646401    7.076696   -1.128980
C     0.698002    7.721106   -1.906032
H     0.075009    8.314156   -1.503238
C    -0.375508    8.174215   -4.117984
C     0.799304    5.582439   -5.791707
C     0.875227    5.651157   -7.273234
H     0.701217    4.763729   -7.650594
H     1.769480    5.950187   -7.541005
H     0.205552    6.284829   -7.606138
O    -1.114860    9.027642   -3.435840
H    -1.708733    9.346715   -3.936954
O    -0.540408    7.943545   -5.307031
O     1.698862    6.441234   -5.217498
O     0.072932    4.890428   -5.128896
Cl    1.679827    7.387359    0.585891
