21
2-(acetyloxy)benzoic acid
O     1.785193    2.709809    6.658971
O     3.711064    0.924353    6.234025
H     4.207014    0.286338    6.373703
O     5.131456    1.240596    4.569338
O     0.573061    1.450107    5.274752
C     3.467061    2.871225    4.901098
C     4.155547    1.602299    5.234669
C     2.345744    3.374578    5.558730
C     3.983714    3.628891    3.854300
H     4.733342    3.318953    3.399212
C     0.894497    1.724843    6.382694
C     1.786472    4.573667    5.189265
H     1.043628    4.899688    5.644749
C     3.416979    4.822050    3.473852
H     3.773432    5.306765    2.765472
C     2.320307    5.289168    4.149827
H     1.935092    6.098678    3.901845
C     0.415647    1.074568    7.619150
H    -0.075248    1.709512    8.145753
H     1.167171    0.753680    8.123888
H    -0.155502    0.336839    7.392828
