21
2-(acetyloxy)benzoic acid
O     8.505842    2.709972    4.667585
O     6.577737    0.918608    5.086290
O     5.155710    1.238252    6.754538
O     9.717297    1.449222    6.053036
C     6.822478    2.868840    6.426098
C     6.133861    1.597893    6.088032
C     7.944938    3.367483    5.765707
C     9.394296    1.719594    4.941323
C     6.300212    3.619436    7.475521
H     5.551563    3.306837    7.930387
C     8.508832    4.568041    6.135032
H     9.253000    4.892251    5.681015
C     6.869236    4.814731    7.854133
H     6.512601    5.299763    8.562974
C     7.970996    5.287060    7.174488
H     8.353213    6.097795    7.421441
C     9.875159    1.069648    3.702764
H    10.479055    0.358082    3.928437
H    10.331071    1.715522    3.158336
H     9.127574    0.712684    3.217545
H     5.976664    0.144725    4.903949
