21
2-(acetyloxy)benzoic acid
O     6.541399    3.860004    7.755241
O     5.017976    5.640383    6.492829
H     4.453825    6.229096    6.408363
O     4.529488    5.317513    4.353438
O     8.269505    5.121297    7.103931
C     5.099089    4.959206    5.394338
C     5.867787    3.703819    5.410335
C     7.462269    4.858801    7.933665
C     6.555076    3.193920    6.516292
C     5.898703    2.949143    4.243589
H     5.448312    3.259557    3.491154
C     6.579441    1.751505    4.172133
H     6.591689    1.260762    3.382595
C     7.226341    1.989063    6.450169
H     7.667783    1.652176    7.196194
C     7.233661    1.301980    5.274890
H     7.699419    0.498775    5.226024
C     7.312277    5.477635    9.264653
H     7.878584    6.250174    9.325155
H     7.560410    4.844685    9.942390
H     6.397367    5.741358    9.393837
