24
2-Acetoxy-6-methylbenzoic acid
O     4.428887    1.008977    5.225377
O     5.789271    0.859874    6.967519
O     4.150657    3.733360    5.008133
O     3.986841    3.137673    2.859527
C     6.212233    2.565147    5.392468
C     5.543495    3.694275    4.927600
C     6.213000    4.814718    4.491541
C     7.599215    4.798794    4.492850
C     8.272374    3.683418    4.928909
C     7.619174    2.555738    5.399015
C     5.407677    1.407067    5.870431
C     3.451414    3.388832    3.898343
C     1.991426    3.359156    4.177264
C     8.418166    1.365087    5.862574
H     5.772873    5.609450    4.216548
H     8.049399    5.616688    4.046315
H     9.163845    3.684142    4.936766
H     1.515535    3.039960    3.430856
H     1.679417    4.176326    4.452256
H     1.880900    2.764916    4.897482
H     9.478358    1.375220    5.552225
H     8.026985    0.651420    5.526036
H     8.394566    1.244936    6.887902
H     5.088590    0.115808    7.254559
