46
catena-((μ3-Aspirinato)-(μ2-aspirinato)-copper(ii))
Cu    3.000358    0.366115    0.591924
O     2.147789   -0.264457   -1.061541
O     4.051263   -0.849617   -2.098937
O     0.624137   -2.495938   -1.937000
O    -1.095545   -1.117615   -1.515714
O     3.398750    2.071598   -0.298272
O     5.292843    1.454358   -1.308610
O     6.464240    3.171924   -2.996460
O     5.075008    2.065453   -4.375214
C     2.020206   -1.081160   -3.260596
C     0.894015   -1.884218   -3.182126
C     0.140603   -2.194609   -4.291956
H    -0.603656   -2.746646   -4.217024
C     0.505586   -1.675902   -5.520430
H    -0.001819   -1.867553   -6.275581
C     1.625663   -0.869719   -5.626376
H     1.866965   -0.520790   -6.454586
C     2.387363   -0.581202   -4.513631
H     3.147977   -0.052079   -4.597930
C     2.805497   -0.710358   -2.044195
C    -0.325419   -1.951921   -1.132935
C    -0.228109   -2.533123    0.240200
H    -0.902057   -2.141488    0.801359
H    -0.359606   -3.482002    0.195657
H     0.640049   -2.346680    0.605703
C     4.448293    3.644488   -1.702212
C     5.426554    4.029873   -2.615346
C     5.455596    5.302684   -3.140080
H     6.122546    5.538081   -3.744534
C     4.504817    6.230732   -2.777699
H     4.535115    7.093160   -3.124261
C     3.512213    5.869303   -1.901616
H     2.855874    6.484877   -1.663081
C     3.483590    4.594409   -1.372094
H     2.804336    4.364220   -0.780545
C     4.380501    2.283143   -1.064455
C     6.145883    2.157112   -3.861512
C     7.297108    1.234272   -4.034689
H     7.056715    0.533289   -4.645803
H     7.531962    0.853054   -3.186705
H     8.047056    1.720690   -4.385622
O     4.160537    0.849617    2.098937
O     1.095545    1.117615    1.515714
O     2.918957   -1.454358    1.308610
Cu    5.211442   -0.366115   -0.591924
Cu   -3.000358   -0.366115   -0.591924
