24
2-Acetoxy-3-methylbenzoic acid
C    -0.014243    4.755693    5.549737
C     0.972380    3.792618    5.397993
C     1.365894    3.304645    4.163582
C     0.749808    3.851128    3.046814
C    -0.203777    4.844628    3.150818
C    -0.587491    5.289304    4.392050
C    -0.494666    5.231964    6.867693
C     1.278918    2.260826    7.167771
C     2.146204    1.981149    8.349328
C     2.407869    2.222210    4.056167
O    -0.212058    4.662077    7.931606
O    -1.256336    6.274612    6.828478
O     1.701636    3.373687    6.516465
O     0.340456    1.623067    6.808018
H     1.029742    3.592514    2.114186
H    -0.586456    5.301006    2.386984
H    -1.260484    5.897808    4.501169
H    -1.684933    6.482908    7.723597
H     1.819775    1.111690    8.900039
H     2.035613    2.855288    8.968239
H     3.182271    1.872320    8.081645
H     2.689098    2.118062    3.017829
H     1.926409    1.322326    4.398870
H     3.283266    2.410612    4.654618
