21
2-(acetyloxy)benzoic acid
O     1.762609    2.713317    6.676881
O     3.682750    0.923366    6.256424
H     4.176835    0.284249    6.397167
O     5.105164    1.239081    4.584706
O     0.560351    1.451775    5.287398
C     3.445460    2.871932    4.912030
C     4.129413    1.599982    5.250599
C     2.327046    3.371885    5.574517
C     0.877022    1.725135    6.402483
C     3.968514    3.624167    3.862024
H     4.716518    3.311272    3.406722
C     1.765632    4.574672    5.205623
H     1.023438    4.901229    5.660959
C     3.401867    4.821025    3.484158
H     3.759614    5.305446    2.775537
C     2.305596    5.293313    4.160501
H     1.923957    6.103870    3.912054
C     0.395216    1.071705    7.642274
H    -0.237101    0.385293    7.417315
H    -0.027910    1.724905    8.204348
H     1.138428    0.681847    8.108229
