36
Coordinates from ORCA-job DAQHOT-CH3OH_0_2_tpss_d4_lanl2dz_631gpol_Fe3.opt
  Fe  -2.26795195285465      0.06368636139645      0.19278915994594
  O   0.21956387586395      2.15162328821612     -2.17073441032450
  O   0.32216667462708     -0.73002685651716     -2.75400742162204
  C   -3.78987451966452     -0.25169168644135      1.32286720200638
  C   -1.14059115484041     -0.02624254059123      1.65976602701891
  O   -3.75684595447629      0.01850441160740     -1.32009411260730
  C   -2.47320266370151     -2.88603492745997      0.38506780182522
  H   -3.17263915785958     -2.68162379820712      1.19030039337988
  C   -2.13020912686724     -4.18150815623569     -0.01137867250773
  H   -2.57556406899748     -5.02967603713400      0.50268098205450
  C   -1.21683967496469     -4.36238914655077     -1.05758485508297
  H   -0.93605664699317     -5.36335431091466     -1.37894786888978
  C   -0.66442188827926     -3.23607015443705     -1.67578314536631
  H   0.05724546720128     -3.29752026422248     -2.48634924023423
  C   -1.04529816229355     -1.97238045469289     -1.22774429098508
  C   -0.46707643771171     -0.71272196761083     -1.81398221691540
  C   -0.59246063940552      1.71536566913712     -1.35890696857589
  C   -1.37065331839275      2.61615983394395     -0.43864445172742
  C   -1.18118753764899      3.99702749771521     -0.42124616255504
  H   -0.44586323465030      4.42126362486923     -1.10043418951467
  C   -1.93479716897745      4.76772573135601      0.46934609041991
  H   -1.80758928565941      5.84752295705947      0.51190125003927
  C   -2.84917088536977      4.12453535041520      1.31412447041714
  H   -3.44725098552892      4.68464638348735      2.02866064171013
  C   -2.99154420022970      2.73642173803951      1.24546106812106
  H   -3.67548736376526      2.18146419203712      1.88107235381395
  N   -4.83505185612538     -0.41635351659649      1.85089149936278
  N   -0.40023823763735     -0.08371454976265      2.57752585660171
  N   -1.94351214025900     -1.80399255632458     -0.22155568938846
  N   -2.27033274361849      1.99794201442819      0.37412304572554
  N   -0.96951565715206      0.39364300333088     -1.12697155309797
  C   -4.07739416207325      1.22185570044237     -2.06335647131691
  H   -4.87423046827845      0.99321733928637     -2.78031592872775
  H   -4.38375247085343      2.03200811488458     -1.39087390198578
  H   -3.16547346949082      1.49719454496076     -2.59688167700685
  H   -4.53238878307181     -0.23194683291441     -0.76834461401023
