32
Coordinates from ORCA-job DAQHOT-OH_0_1_tpss_d4_lanl2dz_631gpol_Fe3.opt
  Fe  -2.50978916567331      0.17671278737608      0.01719502741352
  O   0.09795901342083      2.27977122576648     -2.19372101024757
  O   0.34368216834824     -0.57490969594888     -2.70876676477060
  C   -3.73407977238496     -0.15051243922156      1.47040122037090
  C   -1.24153170989185     -0.02784502750708      1.44145237761642
  O   -3.94548053911566      0.21549872389750     -1.06953162475623
  C   -2.76583853081241     -2.76555363017808      0.09547816427467
  H   -3.52802309502619     -2.55817467419900      0.84066496810095
  C   -2.41682389790856     -4.05834379123922     -0.30463545882120
  H   -2.93070700528955     -4.90788774903714      0.13770408783972
  C   -1.40823805165946     -4.23477063222717     -1.26077738027521
  H   -1.11994766904812     -5.23454271152524     -1.57873984521123
  C   -0.77346885082687     -3.10997596795098     -1.79702886655648
  H   0.01790194145934     -3.17125027924600     -2.53958640342961
  C   -1.16967466775040     -1.84889944368136     -1.35539040310468
  C   -0.54292459899842     -0.58176258967528     -1.86186450792887
  C   -0.73560354876943      1.84108951174159     -1.40848115118102
  C   -1.50668200215491      2.73039402311886     -0.47372522775590
  C   -1.29276548335235      4.10656456797297     -0.41774542668930
  H   -0.55178260268824      4.53829215579651     -1.08563011852136
  C   -2.03293909541078      4.86284925996267      0.49626025656426
  H   -1.88681333881273      5.93856380640759      0.56868899507657
  C   -2.95839397895143      4.21461628205131      1.32386695575507
  H   -3.54613922990422      4.76486428142920      2.05410210131728
  C   -3.12630596950397      2.83140940149868      1.21667812334681
  H   -3.81496164167338      2.26803118598944      1.84000672868840
  N   -4.56330723028867     -0.30374507605238      2.29518894883979
  N   -0.41605852967060     -0.13693406520588      2.27546842559307
  N   -2.14730278189833     -1.69230479843477     -0.43105985382666
  N   -2.41507919944836      2.11467341377764      0.32394689687736
  N   -1.13406875133113      0.51502037941222     -1.22714881677649
  H   -4.76531218498401      0.48495156513126     -0.60095041782237
