31
Coordinates from ORCA-job DAQHOT-oxo_0_4_tpss_d4_lanl2dz_631gpol_Fe3.opt
  Fe  -2.57139686380633      0.14037739047498      0.14269784950916
  O   0.05364846435595      2.22318336186513     -2.16530405901168
  O   0.25926966535386     -0.54102136294766     -2.69932643348469
  C   -3.70039550559855     -0.22451746091661      1.62866780627436
  C   -1.09137809657195     -0.01845276956659      1.45819846292171
  O   -3.88572435901447      0.24287909926262     -0.89949405645586
  C   -2.78300300273622     -2.79344770645662      0.13230954793056
  H   -3.53278053558771     -2.60446932210541      0.89332978025508
  C   -2.43167748449680     -4.07793043433422     -0.29019045156951
  H   -2.93122265636275     -4.93403080127308      0.15536753909460
  C   -1.44477897315172     -4.23750479980436     -1.27068427236368
  H   -1.15939565823279     -5.23078372876432     -1.60975018686464
  C   -0.83062094091524     -3.10210831780434     -1.80698741098063
  H   -0.05643976038913     -3.14850119026652     -2.56807943501553
  C   -1.22589995133899     -1.84878596847805     -1.34301834982619
  C   -0.62172140105641     -0.56998213978786     -1.84131019458912
  C   -0.79598129095105      1.80606116561915     -1.37958861593088
  C   -1.55707441223721      2.70824329491780     -0.45488549590935
  C   -1.35090928272323      4.08570868756435     -0.40625407680589
  H   -0.61103973088380      4.51886334326081     -1.07397976472213
  C   -2.10229595277062      4.84281882879601      0.49736767322203
  H   -1.96634251726141      5.92013764263531      0.56021357119497
  C   -3.03152461624546      4.19422097732792      1.31958155545782
  H   -3.63322546348289      4.74411809085294      2.03818953800747
  C   -3.19021224547976      2.80937723000397      1.22275944385235
  H   -3.88735489390869      2.24987923507467      1.83772013199521
  N   -4.43143482030535     -0.42960047211007      2.53424343432806
  N   -0.18325419899483     -0.12528577246923      2.20162528698403
  N   -2.18090068814034     -1.70779444810925     -0.39347919751432
  N   -2.45772346344619      2.09203285383740      0.34733300646657
  N   -1.20200936361988      0.49931549370113     -1.18547262644988
