30
Coordinates from ORCA-job DAQHOT_0_4_tpss_d4_lanl2dz_631gpol_Fe3.opt
  Fe  -2.06879608207630      0.10258816741354      0.51596011734029
  O   0.03950724024719      2.25433226500498     -2.15615352478018
  O   0.23690600926346     -0.57884444881881     -2.71531695062676
  C   -3.57991119062609     -0.23059126174285      1.63749825802665
  C   -0.66270674730958     -0.04954765059949      1.87499438733636
  C   -2.80055643008955     -2.79506307192916      0.14287634515810
  H   -3.51036653850653     -2.60645660849278      0.94292831655243
  C   -2.57149654665694     -4.06701738287358     -0.38755871043455
  H   -3.12519506126650     -4.91515400464977      0.00696877563772
  C   -1.63191342122125     -4.22569230340588     -1.41505752458936
  H   -1.43859003953418     -5.20958620492174     -1.83756141039103
  C   -0.94616250751167     -3.10278573313565     -1.89052956012958
  H   -0.20502201678520     -3.15081477645277     -2.68428753438885
  C   -1.22488851248249     -1.86312849309934     -1.31954830751931
  C   -0.55358679608944     -0.59946591623952     -1.77890844387315
  C   -0.72422996235121      1.81380091738276     -1.30496118855815
  C   -1.55092950993661      2.70794068542018     -0.42418731834769
  C   -1.45766379178911      4.09668556508554     -0.47879762058645
  H   -0.74973815490690      4.53955540090439     -1.17477110579479
  C   -2.27731446703152      4.85398665288241      0.36518357381923
  H   -2.22984067944513      5.94096157362054      0.34945018058820
  C   -3.16026773466443      4.19464960419523      1.23058313078736
  H   -3.81321450909362      4.74889769844310      1.89990607482580
  C   -3.20174816699556      2.79816345625686      1.23580065005540
  H   -3.85929240802780      2.22868385235906      1.88624955499388
  N   -4.54731663222341     -0.44488880086950      2.28163449636915
  N   0.20277118833652     -0.12826451242812      2.67563151649091
  N   -2.13384576554190     -1.71513494119244     -0.32108170097305
  N   -2.40677848630298      2.07316272504608      0.41857950124822
  N   -1.00731227938116      0.47602754683667     -1.00672397823679
