36
Coordinates from ORCA-job DAQHOT-CH3OH_0_4_tpss_d4_lanl2dz_631gpol_Fe3.opt
  Fe  -2.16460976297882      0.21409697778293      0.43941922956877
  O   0.22728362135149      2.36862431714809     -1.98444185287129
  O   0.44506713615333     -0.42234690663262     -2.56758897323467
  C   -3.70802257217306     -0.14033984794064      1.53925413482539
  C   -0.88138120703004     -0.08575291561393      1.91790680437239
  O   -3.92824858628520      0.63283387595958     -1.10130328037059
  C   -2.70763994068485     -2.78121512715590      0.02767910046447
  H   -3.49408412905012     -2.63426319863723      0.76368723775751
  C   -2.35508601628723     -4.04117513973077     -0.46334796932004
  H   -2.88394516607593     -4.92236092164049     -0.10850471196958
  C   -1.32079870696712     -4.14361728295895     -1.40435278961616
  H   -1.02889036609082     -5.11546639478676     -1.79750766727928
  C   -0.66441030284266     -2.98257757083828     -1.82552937712287
  H   0.14938067151137     -2.98870921833803     -2.54624195070333
  C   -1.06895867926421     -1.75947695904740     -1.29028362355670
  C   -0.40676053566190     -0.46536100191512     -1.68490552152673
  C   -0.57127499963578      1.93452973186618     -1.16046668308993
  C   -1.34018930751506      2.84708574162919     -0.24370259008604
  C   -1.10344615908591      4.22155183798775     -0.21525917768089
  H   -0.34603478464671      4.63119866899474     -0.87870292494181
  C   -1.84789135826794      5.00662053299701      0.67106073703901
  H   -1.68656092122239      6.08155787733502      0.72397869772766
  C   -2.80081451635958      4.39128910399895      1.49419253327614
  H   -3.39536025471602      4.96894025872150      2.19767362197385
  C   -2.98562609631942      3.00848159880036      1.40678899061097
  H   -3.70437343341741      2.47144434012890      2.02030239479460
  N   -4.75969896107173     -0.33455577717806      2.04241164854546
  N   -0.08724270355308     -0.25282111760213      2.77578465823996
  N   -2.07540484182684     -1.66464837922706     -0.38760255229846
  N   -2.26613074636147      2.25876122923804      0.54994055458956
  N   -0.91978913617988      0.59659522851197     -0.93225766132232
  C   -4.09107097603363     -0.14493296287904     -2.30434869987315
  H   -4.98105047189504      0.19160506480579     -2.85257371862641
  H   -3.19978645271413      0.04255348761748     -2.90868803582584
  H   -4.16943332761497     -1.21839265425937     -2.08612564682968
  H   -4.66320600918710      0.42480350285828     -0.48390493563991
