30
Coordinates from ORCA-job DAQHOT_0_6_tpss_d4_lanl2dz_631gpol_Fe3.opt
  Fe  -2.29163899734520      0.06509921450420      0.61966573474090
  O   -0.44955947584783      2.21128609612138     -2.42807935357996
  O   -0.26795312359202     -0.49216622380535     -2.97003374134133
  C   -4.27514616924761     -0.09600013061993      0.74085367766362
  C   -1.25766204469065     -0.20104517165322      2.29817638559703
  C   -2.35990683003363     -3.05383446751431      0.37637897358705
  H   -2.90739587496696     -2.96861116147261      1.31188263062614
  C   -2.07835193707376     -4.28622218339214     -0.21876563995140
  H   -2.41005901850100     -5.20418417777850      0.25973446908017
  C   -1.36932907346390     -4.30988424827117     -1.42822743805414
  H   -1.13765176889523     -5.25748813747467     -1.91043427433247
  C   -0.96369548141192     -3.10417939205645     -2.00914101160840
  H   -0.41332330736882     -3.05359574060845     -2.94468270351362
  C   -1.28286154329622     -1.91320571667728     -1.35367139895381
  C   -0.88709096123265     -0.57129043273156     -1.91201037295899
  C   -1.05011242215485      1.79746479310025     -1.43948736590803
  C   -1.61065087513193      2.75977881608404     -0.42504592883813
  C   -1.47472631637837      4.14194805504345     -0.57115167614371
  H   -0.94699742535453      4.52458126461203     -1.44057128465974
  C   -2.02700147200324      4.97001927142750      0.41107933614980
  H   -1.94109458244225      6.05182096710069      0.33027172950085
  C   -2.69444230130824      4.39316311092087      1.50101107710484
  H   -3.13660809310753      5.00696105348017      2.28161832125465
  C   -2.78902112262796      3.00120685126192      1.57691448252087
  H   -3.29579056641427      2.49400772892542      2.39430625266700
  N   -5.44725257985512     -0.18581436202534      0.86038339435206
  N   -0.66314583218131     -0.35851565777857      3.30711024247724
  N   -1.96355390405261     -1.89816798268828     -0.18908602439411
  N   -2.25279207544681      2.21181513733391      0.62731841259951
  N   -1.31468482457342      0.47205282663198     -1.08751690568391
