45
Coordinates from ORCA-job AWUREP-oxo_0_3_tpss_d4_lanl2dz_631gpol_Co3.opt
  Co  21.21506699789103      9.21388687950047      5.79737862749894
  O   20.28507579744335     13.07351485192719      6.81151728909012
  O   20.87008610388434      9.99558328018667      9.76794637348798
  N   21.33858983583837      9.46652550433173      3.85000396974370
  N   21.10250933206242     11.15314209049865      5.82066220769156
  N   21.47354286174468      9.23263680203994      7.68608968465415
  N   23.28193379518424      9.22029706121941      5.83357651569054
  C   21.37612411631286      8.51484487371948      2.91645000838205
  H   21.22488412151911      7.49567416249938      3.25995141509792
  C   21.62889616233857      8.83644755953358      1.56424290992874
  H   21.65890672123836      8.03577711938822      0.82967759770599
  C   21.83899732414696     10.15668396784817      1.20122038573430
  H   22.04222931259904     10.42042796777955      0.16396115178709
  C   21.78369333025649     11.18672637057580      2.17815488550869
  C   21.52041651843615     10.78579159919038      3.52530327021112
  C   21.97062247037726     12.56890992340000      1.91479999770407
  H   22.18142588719881     12.89704600802327      0.89874342896625
  C   21.87639342763789     13.47657704552353      2.95998428244482
  H   22.01531217235292     14.53784646496476      2.75931626497870
  C   21.60269997875230     13.08153597201360      4.29101101163559
  H   21.51033389019697     13.81589661480771      5.08178782376954
  C   21.42111897076525     11.72670872637783      4.59558554152152
  C   20.41407549258896     11.84397663791792      6.79793634459423
  C   19.74252084060679     10.95722872999994      7.85428608328322
  H   19.27886386253102     11.59809227570251      8.60665548943075
  H   18.97033392368394     10.36032924985725      7.34187341620469
  C   20.71566207220950     10.02100681910757      8.54286854014167
  C   22.71799505576112      8.74490527497467      8.08666332550553
  C   23.09351421493350      8.31791351678664      9.36285624466093
  H   22.35632184196245      8.28862857000219     10.15485759441155
  C   24.43540669311026      7.93767046267824      9.60657022252509
  H   24.69992688079521      7.59880051177934     10.60672329764881
  C   25.40873112344926      7.98303576420784      8.62069750759485
  H   26.43527377963483      7.68817908333298      8.83029778952140
  C   25.06199168765353      8.42006696617893      7.31388389600132
  C   23.70600361300705      8.78567153617744      7.06234985584372
  C   25.96891070280073      8.52956343879862      6.22892696751055
  H   27.01195532357381      8.25136125855784      6.37329589708954
  C   25.52233464691951      8.99026452361786      5.00193797969059
  H   26.19673300513193      9.09192086987775      4.15539626701888
  C   24.15992372841308      9.32143807271944      4.83636241995503
  H   23.78259355184321      9.66465467870547      3.87871029742612
  C   21.49342836400861      7.31801017824010      5.69378024903548
  N   21.68606918516436      6.16530571611479      5.55217865377096
  O   19.57147128203859      8.95839501931484      5.75212701790144
