50
Coordinates from ORCA-job AWUREP-CH3OH_0_1_tpss_d4_lanl2dz_631gpol_Co3.opt
  Co  21.51316621826941      9.28924240328670      5.77254731019156
  O   20.54135482702247     13.16931932091287      6.77929501526143
  O   21.08297667974740     10.01900451063667      9.78439962431615
  N   21.56674451381027      9.51095270858039      3.83027348334173
  N   21.25735895167222     11.20729260233579      5.77054673404484
  N   21.61784630842007      9.23460148118219      7.68425896984834
  N   23.42364664590849      9.25236480817133      5.87072340145006
  C   21.67726901301495      8.55708763455555      2.89833760950820
  H   21.58707687538073      7.53315410306861      3.25135734715741
  C   21.92140726730972      8.87213476316328      1.54377237766756
  H   22.00381854683925      8.06380914274362      0.82119972760163
  C   22.06248900988633     10.19651454358142      1.16358094252347
  H   22.26222079558372     10.45843076484964      0.12502550151421
  C   21.94955645178724     11.23259233474977      2.12937462040567
  C   21.69424609864118     10.83593179444352      3.48066853640070
  C   22.07654958073849     12.61642657672473      1.84546322763682
  H   22.27552678396304     12.93903861761206      0.82506473329743
  C   21.94494055605469     13.53225216070639      2.88075070980311
  H   22.04412032678405     14.59575928723367      2.66690620675583
  C   21.68844837758832     13.14477474904277      4.21592018083798
  H   21.57509711089677     13.88489934247680      4.99783042829603
  C   21.55685485173494     11.78539185547688      4.54353689498439
  C   20.66233995843166     11.93570050736704      6.78547160096986
  C   20.03383677968165     11.10830864847354      7.91128919360492
  H   19.71414341143150     11.79874821420589      8.69515368937467
  H   19.14816120624999     10.60185575210273      7.50406837063553
  C   20.93867513307175     10.06817944188308      8.55560570715915
  C   22.84138919818792      8.70022651923062      8.09717542456938
  C   23.20832642873191      8.22896786515097      9.35972663738223
  H   22.47273477498692      8.19781272488720     10.15322849521415
  C   24.54447912088251      7.82035484504346      9.59232625192199
  H   24.80243915896378      7.44533614838552     10.58166523980767
  C   25.52749438705076      7.89316506193338      8.61618690276229
  H   26.55166537614284      7.58887638775303      8.82408759860670
  C   25.19468696585734      8.38713259237436      7.32728942909233
  C   23.83822377098463      8.76102289546381      7.08705669106394
  C   26.11138460095030      8.56740747415350      6.25985602179786
  H   27.15523975134694      8.28826392514763      6.39677961080717
  C   25.67570078626653      9.10878616269973      5.06225824104348
  H   26.35991172774630      9.27712351222796      4.23441711607795
  C   24.31322890233787      9.43559904476731      4.89194740240738
  H   23.94590780538363      9.83598409793904      3.95457715610341
  C   21.53201758698659      7.39109807214143      5.66113346511034
  N   21.34895860153158      6.23297888066575      5.52014383516118
  O   19.50463773119137      9.03557283050632      5.85550327895612
  C   18.68561584472424      9.52065830133948      4.75740300743692
  H   18.89221740724247     10.58986279616301      4.68620631987957
  H   18.94609043597196      9.01816764540780      3.81994055483920
  H   17.63411977760878      9.34914601788126      5.01398792037692
  H   19.46153757900138      8.05178812916986      5.89466125499285
