45
Coordinates from ORCA-job AWUREP-oxo_0_5_tpss_d4_lanl2dz_631gpol_Co3.opt
  Co  21.03679150853073      9.05515470838163      5.75093049991302
  O   20.40858921927148     12.97497320276131      6.95298406999709
  O   20.70909316021550      9.95621368616839      9.87466231751528
  N   21.30568146129420      9.44773571262888      3.67499412556647
  N   20.93912406553216     11.03984139880213      5.76290937764767
  N   21.54811617672243      9.35125780088102      7.78282715820620
  N   23.24288920133967      9.01610877717795      5.82118817189350
  C   21.39212754359275      8.57757203270627      2.66978535723038
  H   21.23401867558347      7.53327307201624      2.93274956567927
  C   21.70513445267442      8.99160473780753      1.35515071909417
  H   21.76881259651838      8.25300668402696      0.55961038652452
  C   21.93761008917971     10.33584779595348      1.11084231083711
  H   22.19326320346541     10.68270973098945      0.11007603087687
  C   21.83553822796755     11.28225541672847      2.16556035927030
  C   21.49586162967972     10.77897319539471      3.45937070844225
  C   22.04377470263900     12.67974507249651      2.00671682074272
  H   22.30838787375247     13.07447504374416      1.02705568779332
  C   21.89477181559045     13.51966711212436      3.10216205047803
  H   22.04842213604888     14.59076539539066      2.98053046427502
  C   21.53352046662288     13.03753972996925      4.37803786212070
  H   21.39284058226635     13.71986227508543      5.20704571843915
  C   21.32768735005973     11.65997550319503      4.59191362609834
  C   20.39113256389193     11.74571685911030      6.83362389638352
  C   19.67649275011395     10.87197496830387      7.87864317607311
  H   19.15778990281145     11.52884192407991      8.57967910710989
  H   18.96175648326952     10.21605944446082      7.35910633623844
  C   20.66569916084493     10.01063832850587      8.64284503475970
  C   22.78049085629186      8.92783373924327      8.17419140198457
  C   23.23874527278141      8.69659257967843      9.49023989609987
  H   22.53350101385275      8.79083440121134     10.30724477440576
  C   24.57746620770916      8.32748049378468      9.71931974249908
  H   24.90005291642402      8.13667899110449     10.74121681382615
  C   25.48591567116570      8.19468418509165      8.67618559995217
  H   26.51850043493179      7.90774804480460      8.86828501566078
  C   25.07187665840165      8.42708062162473      7.33286637145947
  C   23.71055412077175      8.77029523066514      7.07994841094372
  C   25.94415255232299      8.34302163569108      6.21879225892632
  H   26.98932160436505      8.07926477997081      6.37432700363040
  C   25.45388700126490      8.60290346590219      4.95098626471599
  H   26.09337814881297      8.55190868330405      4.07323216472642
  C   24.09086610002844      8.92837611496927      4.79495787088630
  H   23.67562947258021      9.10991274966835      3.80936197121950
  C   21.37651210562582      7.17228899075295      5.61048949579359
  N   21.64497396978900      6.04186165212854      5.41359976329717
  O   19.40814889340009      8.78834403151322      5.76235424076632
