46
Coordinates from ORCA-job AWUREP-OH_0_2_tpss_d4_lanl2dz_631gpol_Co3.opt
  Co  21.31866779288944      9.25388720012739      5.81799744637651
  O   20.34336116267586     13.10184979752771      6.85080692702300
  O   20.82096249249116      9.93796411189486      9.79107927170976
  N   21.39216887759015      9.49322376525881      3.87628881132542
  N   21.11617687561366     11.18064473576957      5.81205160390752
  N   21.52371066305939      9.26601593325147      7.69289843504847
  N   23.30963083147170      9.18600676326703      5.85718863229978
  C   21.43107659260231      8.53796885279522      2.94521557350354
  H   21.31444958917383      7.51759920705311      3.29887401965579
  C   21.64042173528661      8.85307436415375      1.58376992799292
  H   21.67371434892508      8.04590126739772      0.85618504563361
  C   21.80230090206138     10.17440319674314      1.20193296552158
  H   21.96924784067216     10.43434069996579      0.15725699487763
  C   21.74019798386055     11.21008992360315      2.17297225885393
  C   21.52850507550473     10.81163826268048      3.52888580288988
  C   21.87115583543527     12.59613087759569      1.89436410478750
  H   22.04810797069867     12.92221174684265      0.87107034905231
  C   21.77022213090080     13.51178494412799      2.93351494546992
  H   21.87025248590675     14.57464650868515      2.71799303639786
  C   21.54195759517184     13.12182863905375      4.27325754454134
  H   21.44936615748708     13.85931768858231      5.06132534572567
  C   21.41218938357412     11.76233150179394      4.59257511729827
  C   20.46356051490548     11.86955804575848      6.81084851430951
  C   19.79039530747438     10.97445063290481      7.85839925161349
  H   19.28585675308318     11.60007245925280      8.59711501655428
  H   19.07024542541522     10.36024676480979      7.28339855528791
  C   20.72496588124116     10.02307343363980      8.56446417301778
  C   22.74558960645609      8.76781001734834      8.11848593818642
  C   23.11999865605150      8.36343528131400      9.40799450066254
  H   22.38448993690120      8.36984233235130     10.20208899452894
  C   24.45061932618933      7.95206999390012      9.65018760315292
  H   24.71512498273233      7.62751096685458     10.65495786158528
  C   25.41957514571144      7.95060149750182      8.65589525005879
  H   26.44031526993627      7.63857395816447      8.86906509346321
  C   25.07916978548701      8.36902538141453      7.33981293314555
  C   23.73252249810078      8.75686075029583      7.08775064629997
  C   25.98759414745589      8.45246845810022      6.25399596728998
  H   27.02697194487750      8.16180569716273      6.39948066486561
  C   25.54497454135939      8.91204424258551      5.02414503109954
  H   26.22014127753336      8.99822132144673      4.17658641252822
  C   24.18922805095649      9.26496975234555      4.85621623669020
  H   23.81369915445350      9.60647016281162      3.89770109081085
  C   21.42139539092366      7.35618185304292      5.73086647667954
  N   21.46939330146959      6.18303149150371      5.62374840790205
  O   19.48537593237238      9.11256229719058      5.72197210465467
  H   19.30130284585940      8.16358322012861      5.89806911572025
