45
Coordinates from ORCA-job AWUREP-oxo_0_1_tpss_d4_lanl2dz_631gpol_Co3.opt
  Co  21.23524691360519      9.22044455342602      5.79404391887791
  O   20.29088841584237     13.08032024959549      6.83007022044779
  O   20.84844008102522      9.95405777121440      9.76597733685518
  N   21.35186581018690      9.47389731973127      3.85481309977396
  N   21.09878235015938     11.16522144715195      5.81504454999651
  N   21.49905225698125      9.25599336687174      7.67135510022041
  N   23.30476699466406      9.21678234947541      5.83126329191005
  C   21.39563435550535      8.52104887175226      2.92232822442860
  H   21.25371281409651      7.50174393239727      3.26868542878008
  C   21.64071578789956      8.84061228270008      1.56824697168578
  H   21.67231627205690      8.03791314825646      0.83601853384780
  C   21.84147394379881     10.16092425289929      1.20044731489810
  H   22.04071973204810     10.42316335618437      0.16208485902450
  C   21.77887345845604     11.19283984098151      2.17474697988149
  C   21.51947012974810     10.79395163708685      3.52303708159678
  C   21.94644879211089     12.57653364234326      1.90481364841883
  H   22.15077170108523     12.90280241446558      0.88686024226410
  C   21.83401142249529     13.48839898575728      2.94440694559292
  H   21.95499272227235     14.55074640713921      2.73804392996909
  C   21.56030740206528     13.09577451277783      4.27618818127853
  H   21.44944856526622     13.83285128505776      5.06231596067064
  C   21.40356419026179     11.73932153560772      4.58763561048130
  C   20.42109774376792     11.85037848137713      6.79838150767932
  C   19.75020552679159     10.95976563363091      7.85770522608495
  H   19.28897285236776     11.59958572536220      8.61245261061169
  H   18.98267381445731     10.36195159900988      7.33971296555897
  C   20.71545617577425     10.01814256566437      8.54034605479653
  C   22.72918097949436      8.75695002420489      8.08429328252575
  C   23.09562317104378      8.32983786064218      9.36584695577612
  H   22.35253404430744      8.30211628438496     10.15219810447903
  C   24.43076442058804      7.93364194563716      9.61457785299675
  H   24.68866526971702      7.59163128007127     10.61521094734960
  C   25.40727447112058      7.96496293985096      8.62998590590686
  H   26.42929552731978      7.65821406178094      8.84450537545812
  C   25.07089253787288      8.40053330992831      7.31876391034239
  C   23.72161346307402      8.77786243696825      7.05893489974561
  C   25.98542542683230      8.50022412378245      6.23899757148612
  H   27.02577340200753      8.21562364401536      6.38958913855777
  C   25.54755590983080      8.96249978790845      5.00909394876213
  H   26.22703786944988      9.05688060162548      4.16578401898074
  C   24.18910323172698      9.30699079768110      4.83832412136203
  H   23.81760603887081      9.65303626229062      3.87900279712749
  C   21.47494745441817      7.32873818332907      5.68824971774106
  N   21.66012598530260      6.17335869318993      5.55659904069445
  O   19.56557057223217      9.00063059479062      5.75161661507588
