44
Coordinates from ORCA-job AWUREP_0_1_tpss_d4_lanl2dz_631gpol_Co3.opt
  Co  22.11497581205849      9.87073129498742      5.76027005613436
  O   19.68160775240537     12.98858490047373      6.67986196732335
  O   21.15766340363823     10.27377725357739      9.71436587165936
  N   22.06578682327844      9.97037556557291      3.82515477423318
  N   21.00492308832317     11.38291065704943      5.65728512752534
  N   22.12781166002912      9.79840329609153      7.66010959463834
  N   23.77328287562968      8.87222869337182      5.91232501852693
  C   22.36113622977976      9.01869695731868      2.92896131635332
  H   22.61659766924104      8.04206614898742      3.32926534677828
  C   22.32116068588515      9.26812087708927      1.54205382000490
  H   22.58513531726133      8.46853779481811      0.85442874544055
  C   21.94410824773080     10.52068938586293      1.08035239232551
  H   21.92464706268989     10.73714132447667      0.01313210911492
  C   21.52609666758411     11.51533357750017      2.00174560523162
  C   21.57017815983897     11.17004397730895      3.38531076729535
  C   21.02940297833309     12.79952060018823      1.65197362925655
  H   21.01014725947816     13.10228297709619      0.60676030772246
  C   20.55843191175356     13.63553889665794      2.65314505751858
  H   20.17295257521890     14.61928011678194      2.38955047831830
  C   20.52605787984210     13.25508613024970      4.01795921255582
  H   20.10925959598616     13.91552784081012      4.76726763065855
  C   21.01994961709863     12.00155244911234      4.40058718643877
  C   20.17873244788907     11.85897456362390      6.67188395953874
  C   19.89514197201076     10.84363123763162      7.76089916600117
  H   19.24631557727979     11.30502693974513      8.50778657207017
  H   19.37608025520405      9.98921255165647      7.29862790124270
  C   21.11674715287815     10.29129141241273      8.48016031306760
  C   23.13525277043502      8.98785575923186      8.18850312684966
  C   23.36845962827683      8.62333429952378      9.52384293016084
  H   22.71373004981593      9.00178939688118     10.29721776808492
  C   24.46253069922009      7.79006074111320      9.85309110822544
  H   24.60418225745066      7.52419402516599     10.89950803803510
  C   25.36412130675369      7.33304031717326      8.90452748684813
  H   26.22227358124091      6.72438144842013      9.18325532462717
  C   25.17667425626951      7.69771216043854      7.54656653185753
  C   24.03788088747261      8.49267031494807      7.20594181435163
  C   26.06991357182655      7.36189282702621      6.49896596871900
  H   26.94864198786805      6.75681327808018      6.71803439465686
  C   25.83474800708633      7.83493689808394      5.21841137145191
  H   26.52422639560504      7.63237311202601      4.40258369081412
  C   24.67275821265146      8.58696173096484      4.95886593909216
  H   24.47012224815948      8.96772605162987      3.96446885650066
  C   21.02603818375382      8.42262799684787      5.69539133707899
  N   20.32411527776395      7.47636222199044      5.63170038567014
