44
Coordinates from ORCA-job AWUREP_0_3_tpss_d4_lanl2dz_631gpol_Co3.opt
  Co  21.48053042919588      9.40949327980038      5.81413937079831
  O   19.97024622812973     13.04129697217001      6.78918908644610
  O   20.94400129834709     10.11341692972020      9.76481745121751
  N   21.48284619699660      9.59914515912243      3.86034525285115
  N   20.99155287572789     11.24136692423045      5.74568917128631
  N   21.69222665619128      9.40458512028123      7.68139904005400
  N   23.53432112556406      9.10884720395755      5.83550007631645
  C   21.66486469898188      8.64479731076789      2.93987221341204
  H   21.62135696721686      7.62104679219944      3.30075159167470
  C   21.89495034659219      8.96322287527001      1.58303043124873
  H   22.04175421437825      8.15405490256384      0.87186818159606
  C   21.92262882413086     10.28885242469665      1.17986958946740
  H   22.09867890419070     10.54957056096598      0.13695202014582
  C   21.70541297535824     11.32247632436817      2.12950007643938
  C   21.48914586111290     10.92054561085511      3.48111000121615
  C   21.68225315451620     12.71292915535243      1.83628386296736
  H   21.85860464178805     13.04770480515336      0.81567717565800
  C   21.43104163415271     13.62119552427136      2.85461227198204
  H   21.41001755159227     14.68565589002809      2.62589303410766
  C   21.19756482883056     13.22078148849002      4.19337566501664
  H   20.98523291704785     13.95024837754910      4.96567544431512
  C   21.22810931637660     11.86200689785559      4.52075748028293
  C   20.25212871269737     11.83997335966533      6.75598031620901
  C   19.73218064494633     10.84936562948046      7.80514080833823
  H   19.14321550560154     11.39617022124456      8.54436626722106
  H   19.08198839361821     10.12607654420862      7.28510000504787
  C   20.82790745648729     10.07811446551097      8.53702882749947
  C   22.89941391127152      8.86390288747317      8.11860389913811
  C   23.23421400947377      8.48752846465816      9.42551593574296
  H   22.50262662509681      8.61016558793883     10.21419569206673
  C   24.51753370408007      7.96264313064033      9.70682491138862
  H   24.74090144212813      7.67012494054107     10.73138370923954
  C   25.48523230845800      7.81212032210865      8.72598564777435
  H   26.46768473877160      7.40671031932124      8.96153222579535
  C   25.18945920494177      8.19578053826856      7.38966260562448
  C   23.89017313330780      8.71203025721350      7.09638879141844
  C   26.10855064648643      8.11279422448975      6.31279886983156
  H   27.10874470980852      7.72124546158854      6.49422097570691
  C   25.73231230543197      8.53569608696398      5.04712484183379
  H   26.42243896023207      8.49104996949490      4.20802608555914
  C   24.42675437442455      9.03068971763711      4.84691914729603
  H   24.09633510847710      9.36780844783542      3.86759252031524
  C   21.02037036790065      7.56074288409039      5.68311466353734
  N   20.76249208993871      6.41532600995670      5.55828476491559
