30
Coordinates from ORCA-job COTREN_2_1_tpss_d4_lanl2dz_631gpol_Co3.opt
  Cl  3.68809596630188      7.55779133044983      4.99659647283332
  Co  2.19982608220295      6.33425728040416      3.95069596222449
  C   -0.06814925562285      8.00095192065313      4.40798377377799
  C   0.84099548532525      8.71683006516316      3.41813971557629
  C   1.11899604910192      7.03154147105571      1.47126829517860
  C   0.31069035540571      5.79622387512804      1.87461526048175
  C   1.89661638789966      3.90009332103604      2.54459529487069
  C   3.19290378428232      4.45740920798102      1.96974255977099
  N   0.80565765458929      7.03798525561819      5.16156230276104
  N   1.70382919014609      7.68823133535912      2.69938762126431
  N   1.02320358510355      5.05550863535187      2.98780202007633
  N   3.67816709685768      5.49838329138437      2.94438261395834
  H   1.53934638758533      9.37945849543157      3.94057276296036
  H   0.27862254280945      9.29374251581163      2.67411110528862
  H   4.24606330264969      5.05717477051533      3.68598864636919
  H   4.32628812185105      6.16723632631923      2.50691546254932
  H   3.04231764128639      4.93647870036752      0.99800609368275
  H   3.94328176961231      3.66830416974409      1.84285065727479
  H   0.16751474895536      5.13381425741158      1.01231206804209
  H   -0.67957111755556      6.07337429527315      2.24639825905409
  H   1.33199413989931      7.53744485158652      5.89577217882893
  H   0.23785578087912      6.33318202268837      5.65147540205700
  H   0.49363475635564      7.75911786442362      0.93799984190751
  H   1.95832176672952      6.77499430580817      0.81913787541190
  H   0.30019759693525      4.65457642945588      3.59799114494532
  H   2.57774589593166      8.16561448542978      2.43891472363763
  H   2.09331061559388      3.29620845621254      3.44000046859204
  H   1.35991651317359      3.27419419384471      1.82011688751802
  H   -0.85934503592814      7.43114551862306      3.91271262413513
  H   -0.53992780835734      8.71553135146845      5.09265190497106
