30
Coordinates from ORCA-job COTREN_2_5_tpss_d4_lanl2dz_631gpol_Co3.opt
  Cl  3.98210328597182      7.61157449355769      5.00942738746210
  Co  2.42138249853436      6.47593421216315      4.00726021728419
  C   -0.15372275333247      7.95741635477834      4.41828751584876
  C   0.66846555505289      8.76121782931880      3.40549350584474
  C   1.15099838444485      7.12138137017514      1.47162302140771
  C   0.38985745515785      5.85509702788693      1.88122210791045
  C   1.87547125899262      3.88412456395278      2.53113808445799
  C   3.20761690272053      4.33496098281842      1.94521414419071
  N   0.77223766923681      7.10171198734548      5.23334824391243
  N   1.64696773727889      7.88891849508794      2.66409969822885
  N   1.09872668139005      5.09429745012418      2.98259408345242
  N   3.84875494320763      5.24136834869046      2.95145261740330
  H   1.26770847363026      9.51979659167660      3.92212380436920
  H   0.00735548514911      9.27178443010903      2.69264768181219
  H   4.33104009654058      4.68482508625399      3.67199012327995
  H   4.58498324328010      5.81471209966899      2.52082361192075
  H   3.07305169930670      4.89962053725785      1.01712828226117
  H   3.84930266350988      3.47279386074837      1.72641284023794
  H   0.26763667344140      5.20442031958615      1.00599579842393
  H   -0.61236806130164      6.10027738110520      2.24294038156701
  H   1.20596170660897      7.66797871405805      5.97558822323221
  H   0.24557647907455      6.37295497462149      5.73040018566407
  H   0.50673207575933      7.76218871737341      0.85342532059877
  H   2.03729398160524      6.87299476712592      0.87799874652258
  H   0.38057813319455      4.75782313140801      3.63359644692967
  H   2.42068591548235      8.48832329515198      2.35243511394686
  H   2.03566201149336      3.25917252707575      3.41890327696867
  H   1.29001084159732      3.30367538921076      1.80598753068327
  H   -0.87697380566114      7.29974764294756      3.92889889001771
  H   -0.71469723136682      8.64570741872137      5.06224311416027
