31
Coordinates from ORCA-job COTREN-oxo_2_1_tpss_d4_lanl2dz_631gpol_Co3.opt
  Cl  3.67171932875866      7.70627192566338      4.88238797235763
  Co  2.19667928207447      6.21947789834154      4.07558463272936
  C   -0.05886168120711      8.03020784873612      4.39833885196531
  C   0.86453715383680      8.70696987640242      3.39299444116808
  C   1.08722688488066      7.01968315633363      1.47638390976576
  C   0.27690866409081      5.79406666466753      1.89468302734961
  C   1.91407611796879      3.89741796420375      2.48827300636378
  C   3.22658228041580      4.48382498635044      1.98204832876245
  N   0.78184465044457      7.07805201269906      5.19432506053651
  N   1.70299187935426      7.65516725864457      2.69397061424639
  N   1.01603032384339      5.02238358867028      2.96257170698579
  N   3.71155779408694      5.45376227089509      3.02469616268644
  O   2.36911050438128      5.01910492654729      5.19960819350737
  H   1.56863851816281      9.36975127495372      3.90681278891316
  H   0.30215959472849      9.28954557703155      2.65347203461518
  H   4.27823419475555      4.98365782993232      3.74506239909889
  H   4.31414088341116      6.19205186304569      2.63754222449610
  H   3.10387586741241      5.02607184953223      1.04094591722416
  H   3.97439929841639      3.69663078591663      1.82741011214248
  H   0.08802973109938      5.13601280587142      1.03687572939632
  H   -0.69232367921572      6.07704571607689      2.31406142490939
  H   1.34101970015614      7.57782447964825      5.90324240000822
  H   0.21555723502084      6.38516710304538      5.70149511504036
  H   0.45205011769000      7.74232874609394      0.94825861846351
  H   1.90501873602202      6.75064304829717      0.80163947597059
  H   0.32660374557726      4.60186386981088      3.59788342053972
  H   2.57047884935425      8.12760585221334      2.41056242702958
  H   2.08348170958777      3.25325021602411      3.35868722698167
  H   1.39823856031385      3.31897758370005      1.71154850807837
  H   -0.86113411276652      7.45912425923959      3.92296257770370
  H   -0.51787213265543      8.76725676141157      5.07007169096407
