32
Coordinates from ORCA-job COTREN-OH_2_4_tpss_d4_lanl2dz_631gpol_Co3.opt
  Cl  3.76851886319035      7.47540150585598      5.01584453294272
  Co  2.21968593669210      6.20271161568216      4.10500599446107
  C   -0.15981626310567      8.11214108565831      4.34094947577134
  C   0.93147534353203      8.73907510805647      3.48112712625244
  C   1.10122876890901      7.02998315078183      1.56681961778565
  C   0.31562209949238      5.77317365253693      1.94577472530161
  C   1.92446141400725      3.83398586914789      2.43420737194084
  C   3.17597730339728      4.39622715624691      1.76356646522701
  N   0.48349623051058      7.05043543282482      5.17115248722849
  N   1.73324694217333      7.65613628071404      2.79002680943088
  N   1.08036168740251      4.96266430883342      2.96356790465047
  N   3.80035703889840      5.36488907723006      2.70527571296065
  O   2.43176099410615      4.86947938474725      5.24229980146516
  H   1.64266098890511      9.29464039404225      4.10236325330196
  H   0.51625437493639      9.41974275872059      2.72700786282868
  H   4.38991385194726      4.88887301805265      3.39827810990425
  H   4.39692469036769      6.05462049187967      2.23546009069378
  H   2.94324029861393      4.91771411270484      0.83032527515021
  H   3.87172737163230      3.58017867460993      1.52670742659404
  H   0.11624981048713      5.16350401897364      1.05506349470486
  H   -0.64971354829334      6.02521583762403      2.39308638776080
  H   0.93532543504046      7.45968160096779      5.99922808810966
  H   -0.19584108028108      6.36711995881952      5.52500736131843
  H   0.44987042646450      7.76058600981006      1.07008385491011
  H   1.91598937476433      6.79328916545190      0.87687852641059
  H   0.41640577937754      4.54109578293130      3.62508556550535
  H   2.61608853934592      8.09875186555312      2.50473035025908
  H   2.18951074821588      3.21676626044821      3.29963978184469
  H   1.33337465262908      3.22647038773294      1.73619933401528
  H   -0.94802536885279      7.64977381010971      3.74003293111654
  H   -0.62863379976451      8.87637146311957      4.97443519414776
  H   3.01243109525842      5.10959076013186      6.00876908600543
