52
Coordinates from ORCA-job BANQUF-oxo_0_5_tpss_d4_lanl2dz_631gpol_Fe2.opt
  S   1.36849161861873     -2.10913687701659      6.33603619226986
  N   1.90146457313223      0.42213780360120      5.19633011176880
  C   1.67921275500787     -0.65510600940413      5.68548391550647
  Fe  2.40878751432844      0.89825706976031      3.32846283766240
  S   6.53989728115431      1.94615055862832      2.24335632796219
  N   4.00330487920637      2.07338200517110      3.48394982717351
  C   5.08482743108205      2.01850597334678      2.96013023707520
  O   1.31160180535290      2.09618995476969      3.12840162676597
  C   2.80569114541915     -1.65612372834192      1.38978573204855
  H   2.96157683850787     -2.52815127437464      0.75505011073441
  N   1.01335202949769     -0.67219772283736      2.68185374443144
  C   -0.27047173115484     -0.93780581589582      2.96421425061521
  N   1.44461414859821     -1.69224484879332      1.88279179819113
  C   -0.65656623547596     -2.14550659745185      2.32544763655957
  H   -1.62863046132379     -2.62043019193231      2.36981374010237
  C   0.45216422589701     -2.61215619565077      1.63954779192222
  C   -1.07254364481883     -0.03623165348383      3.85015995509513
  H   -0.61744929285299      0.95896145022195      3.88193741018216
  H   -1.10095214628118     -0.44041739972227      4.87134567371780
  H   -2.10344182211171      0.03741733312066      3.48151935127151
  C   0.66382805433150     -3.83014315447785      0.79370738666670
  H   0.95974549596502     -3.57422269773548     -0.23496663177955
  H   -0.26938293608541     -4.39946094565235      0.73673170988326
  H   1.43269488197837     -4.49443594603620      1.21555075805649
  N   3.77147661498844     -0.73268978487329      3.42169966619996
  C   4.75602015324746     -1.04937079461570      4.27959303367034
  N   3.75314503292992     -1.72679796218996      2.48241912975632
  C   5.36480857825304     -2.26297801215124      3.87348222461645
  H   6.18289698224588     -2.77157670871124      4.36719534671651
  C   4.71437014559167     -2.67824599394833      2.72568710385873
  C   5.10972201084566     -0.18697049631961      5.45043860012086
  H   4.32886164219342      0.55293212491836      5.64027647280478
  H   6.05271013272856      0.34056198173932      5.25185087772573
  H   5.24256677724672     -0.80993357887132      6.34382892689738
  C   4.91172371105529     -3.87796079021816      1.85132303964294
  H   4.01538799066964     -4.51509440045358      1.81484129778502
  H   5.73132509873932     -4.48384422972246      2.25033533714643
  H   5.17702034884209     -3.59933737033484      0.82046620276065
  N   2.86361336545434      0.75285350100602      1.18257228729857
  C   3.10436901656579      1.66467314211626      0.22929631442030
  N   3.03104137817236     -0.46725342885976      0.59217049471016
  C   3.42567866002397      1.00579681684714     -0.98659139085111
  H   3.67350723592829      1.47325861366888     -1.93130180655364
  C   3.37362187717929     -0.35498274259312     -0.73473301285276
  C   3.03572672068592      3.13089849485353      0.52402630137255
  H   2.41565341447435      3.30583539962480      1.40915952582807
  H   2.61811125541669      3.67011197051278     -0.33556553058656
  H   4.04253843987432      3.52398594796813      0.72056733111207
  C   3.61756227778809     -1.54175562592373     -1.61550454531953
  H   4.45285024681950     -2.15895066759562     -1.25255423521811
  H   3.87442843580337     -1.19875579365940     -2.62280290812377
  H   2.72844604826327     -2.18464070202711     -1.70041757882147
