57
Coordinates from ORCA-job BANQUF-CH3OH_0_1_tpss_d4_lanl2dz_631gpol_Fe2.opt
  S   1.32661774554506     -0.81133505178464      7.34968577138990
  N   2.02974010334030      0.40208757380115      4.88819469537200
  C   1.74846252059394     -0.12027410982149      5.92352952211994
  Fe  2.54247729174424      0.51165979745996      3.05263802626268
  S   6.41550516838357      3.09160072690201      3.10996658692443
  N   3.90531221054921      1.80823245568043      3.37841590415079
  C   4.97357287461429      2.32996449036283      3.26412215121367
  O   1.22699171752982      2.05374698747659      2.72965651834144
  C   2.88884517132689     -1.82409552620285      1.26843103172769
  H   3.02154853367911     -2.69098167439656      0.62105736401179
  N   1.16382370820425     -0.83131517954136      2.64350716002361
  C   -0.06472394397916     -1.17426831535752      3.08837396946699
  N   1.52580551137703     -1.82925289789299      1.76750976129491
  C   -0.46534075260363     -2.39681461711082      2.49212695915414
  H   -1.40419251814950     -2.91225904613768      2.65128130104719
  C   0.56773049484917     -2.81001612658915      1.66992195429102
  C   -0.83930708178875     -0.36873914446040      4.08720025220470
  H   -0.45678098860295      0.65160796619065      4.17393642553341
  H   -0.75185156307139     -0.81499999074583      5.08813940471643
  H   -1.90127228365875     -0.34315898561412      3.80987870822138
  C   0.73008560352889     -4.01680450233242      0.79869518019520
  H   0.87736362290883     -3.74687811200809     -0.25780221093962
  H   -0.17171185298139     -4.63417549334184      0.86177587696675
  H   1.58069213183321     -4.64105915946391      1.11203471943093
  N   3.79916439714769     -0.92009705377206      3.30813094851194
  C   4.73539402303864     -1.24468402814949      4.21889048673437
  N   3.82503540283140     -1.91728781913766      2.36254211616261
  C   5.35936959333016     -2.46103251892625      3.82979588486477
  H   6.15478002812386     -2.96796897795876      4.36134455861941
  C   4.76949608264437     -2.87650582047610      2.65065816696423
  C   5.00958622454597     -0.42888550637638      5.44286915996137
  H   4.62014074991229      0.58411503644040      5.32784906572220
  H   6.09101778450211     -0.38533028535585      5.62305129783599
  H   4.52880720060731     -0.88844895538505      6.31785033236801
  C   5.00814272969721     -4.06585383280701      1.77331475736959
  H   4.11803591569432     -4.70878008490670      1.69187290397632
  H   5.81411482060361     -4.67248880890257      2.19847566639141
  H   5.31262454705815     -3.77597219631612      0.75592182668161
  N   3.01845647668302      0.57638916321351      1.14614085529246
  C   3.35683355994292      1.51160091898206      0.23535707013342
  N   3.12564856932315     -0.62796088510586      0.49473051420768
  C   3.67890365426463      0.87929216136012     -0.99415991044665
  H   3.98295941116467      1.37386862660083     -1.90818349106225
  C   3.53542422471314     -0.48425452149018     -0.80943835875042
  C   3.38822223358000      2.97823377319695      0.53292181976239
  H   2.69872795721297      3.22117036086905      1.34310714954143
  H   3.11004409635848      3.54162935600097     -0.36733838825775
  H   4.39782566835825      3.28865568694194      0.83681930379697
  C   3.73357017007881     -1.64772777354239     -1.73070228021995
  H   4.52846329995630     -2.32369671548048     -1.38025861736444
  H   4.02649743800907     -1.28045344873411     -2.71956557071369
  H   2.81402817141818     -2.23983055435649     -1.85470062648311
  C   1.13901528519067      3.04980803730180      3.79690932851680
  H   0.47631993277490      3.85720251997489      3.46271422458168
  H   0.78622954268124      2.58717626086241      4.72392920285385
  H   2.16169652488323      3.40311036554330      3.93238594463131
  H   0.34545085849682      1.64851545481937      2.60462762469484
