52
Coordinates from ORCA-job BANQUF-oxo_0_3_tpss_d4_lanl2dz_631gpol_Fe2.opt
  S   1.43712417549406     -1.54006304693667      6.75733002477331
  N   1.93971826370228      0.57224532205653      4.94755160888536
  C   1.72744246701422     -0.34193786271403      5.69432796312494
  Fe  2.33044891446550      0.79078907872555      3.08058666505692
  S   6.47306950326854      2.25287149800587      2.58746739335371
  N   3.78875524930270      1.99490605494257      3.43368720828096
  C   4.92678493952581      2.08162511080498      3.06123214229398
  O   1.20060362837385      1.94493636041515      2.78397150643783
  C   2.80035342007825     -1.68460045578950      1.32406838882156
  H   2.92345115262276     -2.54472658275986      0.66628288809288
  N   1.05178325679736     -0.67902924346122      2.67025988870690
  C   -0.21352073531854     -0.94762237799989      3.03188522506346
  N   1.44818453965685     -1.69986423883379      1.84846347523220
  C   -0.61605267309929     -2.16836695731756      2.43166427065583
  H   -1.58048757810344     -2.64867792587266      2.53671530399422
  C   0.45456191110386     -2.63488584715856      1.68811852981711
  C   -0.99341932796964     -0.04116817685942      3.93055640368308
  H   -0.58039408386252      0.97143746084208      3.89073523222227
  H   -0.94225465923643     -0.40200363993961      4.96696471630553
  H   -2.04582613714601     -0.02816531115961      3.62028249655442
  C   0.62856977132807     -3.86531054111139      0.85221999658180
  H   0.84996463989583     -3.62466806405487     -0.19839770793210
  H   -0.29774274388621     -4.44809824405691      0.86992953141202
  H   1.43404076240533     -4.51036875721018      1.23352691627024
  N   3.74463307709633     -0.79007264116596      3.34202094077480
  C   4.70143372461231     -1.11007474213662      4.22832737638867
  N   3.75947176210292     -1.77899117987219      2.39750591675095
  C   5.32754237184628     -2.32073816585472      3.82757198162054
  H   6.13555943456380     -2.82663517037503      4.34056359892420
  C   4.71295242222773     -2.73403803211242      2.65962989579404
  C   4.99312128237069     -0.28710057603350      5.44370883472783
  H   4.49987395421122      0.68470645822432      5.38306537745060
  H   6.07591210805656     -0.14028780368634      5.54086978844559
  H   4.62874145856181     -0.80945421801420      6.33904256457472
  C   4.93539517827776     -3.92459334578735      1.77870806321869
  H   4.04193013502221     -4.56376711486590      1.71338343964251
  H   5.74643513977063     -4.53285722711225      2.19124175488186
  H   5.22405005899674     -3.63469784791993      0.75727846130349
  N   2.88592487245502      0.73328511463167      1.16966828008727
  C   3.17296845680000      1.66873665371797      0.24955694623030
  N   3.02104620527224     -0.47935802720182      0.54838036899987
  C   3.50387542827714      1.02858187974421     -0.97238409666220
  H   3.78248130222737      1.51613956730262     -1.89786358444661
  C   3.40738971211292     -0.33636316027283     -0.76224582256745
  C   3.12405592001514      3.13136559454395      0.55877229653118
  H   2.46862364761215      3.31135490427208      1.41629487521375
  H   2.75625308344103      3.68254892190136     -0.31580022241794
  H   4.13077953400817      3.49863485311483      0.80110231571967
  C   3.64027207944888     -1.50463622689311     -1.66987864871651
  H   4.45877494890638     -2.14733398815160     -1.31305999001411
  H   3.91661606829110     -1.13989024526912     -2.66418049228956
  H   2.73972797700192     -2.12671784728501     -1.78231028785495
