52
Coordinates from ORCA-job BANQUF-oxo_0_1_tpss_d4_lanl2dz_631gpol_Fe2.opt
  S   1.44065027791993     -1.53533478309009      6.76759558240853
  N   1.94562111894793      0.56214977626822      4.94160896580222
  C   1.73289230836875     -0.34441458731082      5.69684904838463
  Fe  2.33036193492881      0.78979738922523      3.07755532036205
  S   6.47400496244609      2.29518039366730      2.60222468042967
  N   3.78845011019021      1.98798546899064      3.42685868850426
  C   4.92668748798962      2.09769685142108      3.06302138184590
  O   1.19452690761359      1.94529810339222      2.78418757832538
  C   2.79959674306144     -1.68529240635830      1.32021864803823
  H   2.92044196233399     -2.54416636222548      0.66033851524533
  N   1.05356363040642     -0.67660457705460      2.66667590910842
  C   -0.21071772880899     -0.94443303885646      3.03260689435223
  N   1.44784748461179     -1.69858039391248      1.84538546124038
  C   -0.61446526857344     -2.16660261365368      2.43598346680985
  H   -1.57865795858243     -2.64662130217903      2.54437791920301
  C   0.45399572390392     -2.63426693597123      1.69017398877724
  C   -0.98829001387242     -0.03587694201114      3.93107296059591
  H   -0.57351258733131      0.97608303529180      3.88826146007211
  H   -0.93667173814804     -0.39544248236163      4.96790567275059
  H   -2.04114376639135     -0.02191430759659      3.62233360638352
  C   0.62560132979925     -3.86553054015484      0.85500434700436
  H   0.84203002626813     -3.62571357532582     -0.19683270523540
  H   -0.30005644342765     -4.44916923345686      0.87760354377959
  H   1.43349565670460     -4.50926588600060      1.23331661312989
  N   3.74850195889712     -0.79200863619111      3.33491058929046
  C   4.70219487693764     -1.11592067358654      4.22318109156512
  N   3.75964643969745     -1.78283659488634      2.39239277263490
  C   5.32182334194700     -2.33120764315436      3.82606650979002
  H   6.12609881506484     -2.84070963096017      4.34139923838903
  C   4.70661832198377     -2.74357396826748      2.65807003051081
  C   4.99775930186359     -0.29098950342992      5.43640443320687
  H   4.50396498317338      0.68048549441239      5.37554498570207
  H   6.08079545064747     -0.14323895154060      5.52978441127511
  H   4.63678253894299     -0.81170712092541      6.33402447264036
  C   4.92268561739294     -3.93707277186864      1.77954675568608
  H   4.02599304250914     -4.57187999358062      1.71588134435517
  H   5.73080227214121     -4.54877726754443      2.19276503928881
  H   5.21239215731143     -3.65068548274776      0.75741380194055
  N   2.87908579938007      0.73298438743730      1.16812612742358
  C   3.16869358330724      1.67034758176214      0.25067780173921
  N   3.02081911656751     -0.47871803178733      0.54679736317414
  C   3.50835365515606      1.03192954806460     -0.96982035843342
  H   3.79058289276783      1.52078598106934     -1.89350797150411
  C   3.41451741340498     -0.33341965623629     -0.76137557419883
  C   3.11352287905144      3.13245852197668      0.56110143718742
  H   2.45600576126577      3.30831635807930      1.41807332499816
  H   2.74398225418489      3.68279980931977     -0.31327210965026
  H   4.11846830192892      3.50376394862501      0.80462120560679
  C   3.65586599758133     -1.50015251251315     -1.66876372405896
  H   4.47300393270716     -2.14179081244838     -1.30702831044622
  H   3.93849169732558     -1.13339068757772     -2.66055624339942
  H   2.75729543650195     -2.12375274223699     -1.78838599203163
