41
Coordinates from ORCA-job DURXEV-OH_1_6_tpss_d4_lanl2dz_631gpol_Fe2.opt
  Fe  3.27093619773306      2.81563524717235      3.28492184788205
  S   -0.40541244807218      5.27202310345265      2.71702865452059
  N   2.30250990201572      4.52973509007998      2.97585071625720
  O   4.09644376926619      1.27493888839706      3.83894691767149
  N   5.04746826720340      4.02454026173740      3.81135881622370
  N   1.45759041504138      2.81959047669790      6.06231908830541
  N   4.40455032057575      2.93122080108925      1.39718624129728
  N   1.66602053133822      2.50031409001801      4.81138428180155
  N   0.15202228915861      2.53342472364341      6.31303733076860
  C   1.15461253604852      4.88166873274049      2.86713864599548
  N   1.62440150399774      1.84977026473762      2.16690314962933
  N   5.52086522663283      4.63289291006632      4.86334469644498
  N   6.71460073347685      5.16631147269528      4.48716130108337
  C   5.90883105256643      4.14421131778011      2.74984155330296
  C   0.51799509596676      2.01062965606524      4.23854226800567
  C   -0.46727530846785      2.02967577900347      5.21486228766806
  H   -1.51250821468503      1.75368789931644      5.20671578772464
  C   5.54213302135151      3.53560955880781      1.48768305571953
  H   6.23084056014709      3.60489385783163      0.63852546531937
  C   0.53924948630285      1.64642879744466      2.83671232219782
  H   -0.35891526556888      1.22132365905958      2.37731526471887
  C   6.99594634419911      4.88783444694648      3.18728684860772
  H   7.89981356970662      5.22564507052298      2.69924752846283
  C   1.65792583577994      1.52838880017071      0.73467241494255
  H   0.94583039531436      0.71846940805858      0.51974639889056
  H   1.32237225496401      2.42489507792769      0.19074922658079
  C   -0.40249244730359      2.81012746746622      7.64419899697087
  H   0.41648569139892      3.19702912309618      8.25323082457786
  H   -0.79439667123571      1.88482044743266      8.07730197152194
  H   -1.19646535287779      3.55838927855235      7.55852253157707
  C   4.00994263242012      2.34428545383664      0.10650366954073
  H   4.90919257979048      2.05516274152642     -0.45674977439556
  H   3.49403268621270      3.13225454161366     -0.46346380029628
  C   7.49918320541560      5.93313553162444      5.46351191449380
  H   6.93185599770189      5.92980134780669      6.39598751602942
  H   7.62910024287548      6.95815582613652      5.10311719295081
  H   8.47177512109443      5.45319648965968      5.60908001236064
  C   3.07219185621508      1.14037500843913      0.27500867078564
  H   2.98509348628704      0.65407136010372     -0.70584757996524
  H   3.50914304539009      0.41025041988572      0.96929994436105
  H   4.06172985462197      0.94646557135657      4.75900579946456
