45
Coordinates from ORCA-job DURXEV-CH3OH_1_3_tpss_d4_lanl2dz_631gpol_Fe2.opt
  Fe  3.04369768346682      2.99825833703004      2.97939420737839
  S   1.09776023391845      5.43681113356535     -0.10392576780887
  N   2.10419150783237      4.74005661428870      2.45235189067258
  O   4.04035173786972      0.89471769994943      3.38136142682370
  N   4.58649332241433      3.92820574247662      3.72276342921495
  N   2.02485385265531      3.11644913379830      5.83832756701076
  N   4.14084207814197      3.12922358908558      1.34849930574980
  N   1.94536985164113      2.73802701645941      4.57967178229918
  N   0.81207048510020      2.84539997294190      6.37597389118363
  C   1.67341467939280      5.04889965004675      1.37094603983539
  N   1.54838937354309      2.01517280643888      2.16958795556114
  N   4.89538482922290      4.41405096653236      4.90529541412136
  N   6.01520115293031      5.15178014444980      4.71252912785208
  C   5.49614475268207      4.34019602789591      2.76692331004352
  C   0.69300363978776      2.22118544026601      4.29991064188660
  C   -0.04375745538894      2.29447319388379      5.47204231329822
  H   -1.06110619095058      2.02583659750173      5.71988448271007
  C   5.21828274800087      3.86308951592853      1.44272667592699
  H   5.83837399244411      4.11207435171277      0.58052225241609
  C   0.51239276757037      1.80787676274896      2.93749104755073
  H   -0.41993591717063      1.38048393922887      2.56638210200968
  C   6.42495959625898      5.14035103147363      3.41461177874130
  H   7.29305185161180      5.68575907386331      3.07182524929811
  C   1.45466047884917      1.70979423975646      0.73469950330401
  H   0.76705734758562      0.86501314448296      0.59012759184134
  H   1.02277422326794      2.59667665138537      0.24096140946037
  C   0.56830493348156      3.16979257147765      7.78725513304785
  H   1.49598842960481      3.58881398619276      8.18066817035665
  H   0.30001459229811      2.25911206199829      8.33161475643547
  H   -0.23852808804158      3.90588938746828      7.85581088993325
  C   3.70654197869184      2.65839901569861      0.02500135062543
  H   4.59113703848766      2.46864793928952     -0.59876316530124
  H   3.12620357537573      3.47527036939891     -0.43638532754666
  C   6.60539100866636      5.86209565714524      5.85401440403931
  H   6.04716128704650      5.55637381042146      6.74053067869525
  H   6.50932644443788      6.94154824829610      5.70069483560455
  H   7.65887105832758      5.58366245538852      5.95207001496033
  C   2.82996761223653      1.40584411858704      0.12909217505368
  H   2.67086525634940      1.02337227404223     -0.88768561710710
  H   3.33951478595470      0.62354697948025      0.70755158062479
  C   5.45446032919004      0.78610503122088      3.66882175452955
  H   5.96698352823277      1.22352350763261      2.80871711516854
  H   5.72097294753678      1.33952859489857      4.57902801127593
  H   5.74390534431998     -0.26751817851289      3.76718283190773
  H   3.54747531512518      0.50384939268430      4.13020577931532
