58
Coordinates from ORCA-job AQOGIX-CH3OH_1_2_tpss_d4_lanl2dz_631gpol_Fe3.opt
  Fe  1.35579226333393      1.94961771152858      4.57519930852370
  Cl  3.63083461026415      2.12323205873244      4.56211126845286
  Cl  -0.90782966461435      1.81660289292650      4.67992746503417
  O   1.09543411351327      3.87889104213405      4.12849755981731
  N   1.50066051117507      0.16873038551029      5.04458117536811
  N   1.44737474351234      1.19192240001215      2.79428824479549
  N   1.41610920623202      2.18420979896416      6.54453457456774
  C   1.54963576517938     -0.11681161390665      2.73538226791430
  C   1.57839218426276     -0.74889244680516      4.05816756576401
  C   1.70184855840991     -2.10809542929354      4.39325269019731
  H   1.77078833654532     -2.86514720743250      3.61718343912875
  C   1.74715040945313     -2.46035737138874      5.74604679916382
  H   1.84300610186492     -3.50586138200391      6.02810770163565
  C   1.68451011230220     -1.47409719651375      6.74684110384625
  H   1.73646354765554     -1.74591970249578      7.79747395186032
  C   1.56314472361683     -0.13621775111582      6.36045928114277
  C   1.51550666145318      1.06970354335922      7.21607791401155
  C   1.40986378686747      3.48233341362113      7.12968208530845
  C   2.61099334209858      4.05400512245600      7.57547638016547
  H   3.53244329312236      3.47894838644205      7.52458406617167
  C   2.60255803096055      5.37436628295719      8.03763283332273
  H   3.53518772867105      5.81814537989163      8.38335907814632
  C   1.42261243380659      6.14080202165871      8.05837383860914
  C   0.23361048128395      5.54402936545289      7.59332006425479
  H   -0.69475187535988      6.11380015422810      7.60649902844791
  C   0.21421373247358      4.22677971380163      7.12254153760932
  H   -0.70802389626794      3.75630601709522      6.78342109664196
  C   1.42057899562399      7.55705223903043      8.58789546106273
  H   0.78171461242944      8.20988104305826      7.97941890333966
  H   2.43190157280231      7.97981288285289      8.60524223656703
  H   1.02980054226947      7.58419446739099      9.61578825943204
  C   1.51203346458538      2.03966631968504      1.65624307168869
  C   0.43420206017605      2.90426000208472      1.39368513580712
  H   -0.44367193588357      2.87001508896901      2.03383427025679
  C   0.51525787614314      3.77156529863982      0.30546298765496
  H   -0.32843880327418      4.42386893421319      0.08337143652251
  C   1.66558402363705      3.82365467134129     -0.51002488932838
  C   2.73888101866404      2.96534745385260     -0.20748118736754
  H   3.64088215853461      2.99873211156872     -0.81668324432774
  C   2.67222122600298      2.07079964540998      0.86404636952667
  H   3.51580814952360      1.43128928314476      1.11454535939127
  C   1.74553279930604      4.79358155105690     -1.66659101590112
  H   1.83496485930971      5.82808800975086     -1.30352578444746
  H   0.84043946365112      4.74518882137424     -2.28653483801620
  H   2.61244078780857      4.58538362939518     -2.30403648367254
  C   1.58172006924955      0.96628031293416      8.70924318622875
  H   2.54887349537091      0.54319326469807      9.01649405513159
  H   0.79310616248251      0.29350328224923      9.07367855507361
  H   1.46124167398265      1.94741258337340      9.17558303746250
  C   1.62600700666575     -0.92489469035136      1.47466157244500
  H   1.37208869658433     -0.31492321543784      0.60355120971823
  H   0.93443810681393     -1.77569663901262      1.53381606902126
  H   2.63986098384799     -1.32692054463042      1.33447364589899
  C   2.17517083276369      4.80502263435937      3.78916067952077
  H   1.71184631354015      5.75785999724975      3.51300782957733
  H   2.85971223442304      4.91476167901732      4.63502356236685
  H   2.69121397180387      4.36388074860975      2.93666698435793
  H   0.57414833934592      4.25766354430605      4.87560124510657
