34
Coordinates from ORCA-job BANSEQ-oxo_0_1_tpss_d4_lanl2dz_631gpol_Fe2.opt
  Fe  0.03951484371950     -0.23361392644056      4.49325452067027
  S   2.93394448308374      3.07528396886283      5.00682809094243
  N   1.15178586976092      0.94009966420151      5.51292772613596
  C   1.90848259850103      1.84216422773540      5.27662945223227
  N   -0.38971449200017      1.44038639800078      3.24761859935135
  C   -0.74441150609829      2.71005778282784      3.45912091531100
  H   -0.83380993173175      3.06889489771123      4.47545960372934
  N   -0.36125018251721      1.28300611027303      1.89572355100792
  C   -0.94830198995817      3.38037459128925      2.23070994841998
  H   -1.23947389079513      4.41187232747666      2.08695665617850
  C   -0.69768572463374      2.44205878969477      1.24519006874488
  H   -0.72577425005473      2.49394606527821      0.16437075067774
  C   -0.01248670282617     -0.03301098602617      1.40031397987312
  H   -0.01563189115308     -0.02125676721226      0.31008125431140
  S   -4.11956474338478      1.20675806458940      4.98517905887176
  N   -1.50956915147995      0.25010213108280      5.49692948067357
  O   0.40196188892795     -1.62166631774966      5.29076772908685
  C   -2.61429259929964      0.65540471992289      5.25838615991051
  N   -1.13101634305756     -1.18861756286096      3.20643951331838
  N   1.53268374900416     -0.48819577377838      3.20687298033096
  C   -2.16168467669584     -2.02340281096974      3.36250711083017
  C   2.84551599131416     -0.67777618150104      3.36149662287287
  H   -2.45883066164005     -2.30683841211489      4.36285458212436
  H   3.24590775628225     -0.77645423530870      4.36113068087172
  N   -0.98288744259766     -1.01191439262134      1.86231693851599
  N   1.31579454420181     -0.40057277797884      1.86263292241083
  C   -2.69520724153449     -2.38494783102562      2.10526493811849
  C   3.49011612300536     -0.70260549679113      2.10432533734450
  H   -3.52951905875796     -3.04526010919095      1.91195576227006
  H   4.54499715717142     -0.84050072033093      1.91018453622550
  C   -1.93108662595707     -1.71452892785785      1.16618109773497
  C   2.49114217891217     -0.50903582392758      1.16657100347235
  H   -1.97174745954297     -1.67920301497657      0.08521604050298
  H   2.50839938183197     -0.44780767028342      0.08610238692692
