35
Coordinates from ORCA-job BANSEQ-OH_0_4_tpss_d4_lanl2dz_631gpol_Fe2.opt
  Fe  -0.13334672344691     -0.02159574481336      4.67885896254491
  S   3.54817310729902      2.43015815033835      5.30101650059059
  N   1.14136466707699      1.00333770594646      5.69418168233906
  C   2.16274263241991      1.61424698335088      5.51722814625997
  N   -0.38024894340647      1.53168859510526      3.37244972768007
  C   -0.60151220474561      2.83611686973965      3.56690740487186
  H   -0.60582405044137      3.21892124824154      4.57842742557369
  N   -0.46432716417765      1.33580868335754      2.02578126469945
  C   -0.81367693714338      3.49445641420414      2.33711066072959
  H   -1.02414069514967      4.54323951903711      2.17911788500886
  C   -0.70955966281308      2.51088872453088      1.36899390118471
  H   -0.79900927910390      2.54018527689862      0.29069405948349
  C   -0.13884225057392      0.02852286648643      1.47662655012863
  H   -0.24330766062221      0.08169670768066      0.39233970815872
  S   -4.18693137919355      0.99599801750557      3.75941740647389
  N   -1.95884129825451      0.50484542539535      5.43713889549960
  O   0.16207771558784     -1.47481733814649      5.67716798431321
  C   -2.92268821714065      0.71776307889108      4.74607965070518
  N   -1.09247882096057     -1.23681946705449      3.30988872344874
  N   1.56787423967344     -0.44102350546310      3.11189270569543
  C   -1.96104789298513     -2.23965145326250      3.46590667094838
  C   2.88591895983185     -0.65489433516717      3.11875483134495
  H   -2.16473122851049     -2.59670833373042      4.46631288526528
  H   3.39520112362282     -0.77389083902463      4.06608413970538
  N   -1.05498315407816     -0.98016542690875      1.97333251360212
  N   1.23275168921648     -0.32299945695485      1.79699001375309
  C   -2.48144071449360     -2.64671299555021      2.21723334120164
  C   3.40875182876166     -0.67234992429784      1.80274460240427
  H   -3.20967812645950     -3.42339132377509      2.02758881810171
  H   4.43636916478545     -0.82588892668680      1.50151738128668
  C   -1.87915098941006     -1.82599760728329      1.27993258861532
  C   2.32377405726065     -0.44657457050864      0.97452295784582
  H   -1.97028400304136     -1.76212652088067      0.20323303271604
  H   2.23172262682945     -0.37201273258153     -0.10176042940508
  H   0.47641958378623     -1.13638376461970      6.54544740722466
