33
Coordinates from ORCA-job BANSEQ_0_5_tpss_d4_lanl2dz_631gpol_Fe2.opt
  Fe  -0.24898960047490      0.42595641222024      4.60247073650002
  S   3.83199848521241      2.33437620388978      5.71737368748893
  N   1.17262174668109      1.39477503074088      5.53770681740228
  C   2.29860623800590      1.80511706508214      5.62261686448791
  N   -0.54889105370250      1.78684340724817      2.96154982511372
  C   -0.74354735790272      3.11110617568474      2.91812055319925
  H   -0.90109886321704      3.64705888522516      3.84528989476278
  N   -0.38110277161357      1.40575625368782      1.66207888767571
  C   -0.69793955743932      3.59085216446334      1.59057654760085
  H   -0.82604586366832      4.60907105797066      1.24884066063362
  C   -0.45654885904476      2.47332795912921      0.80907012332897
  H   -0.34217375295357      2.34787982596195     -0.26036411134515
  C   -0.04221183827413      0.02022741566440      1.35413604910143
  H   0.02368209334635     -0.06683507909632      0.26842526401650
  S   -4.19161498278968     -1.04452917784602      6.67849473626140
  N   -1.80331911282401      0.13984097929838      5.74078754610786
  C   -2.81925995854648     -0.35307589442065      6.14908851883389
  N   -1.31745976073035     -0.99225746121097      3.15545480873502
  N   1.41497723054034     -0.32311341119276      3.26641128948612
  C   -2.33715719092761     -1.85466671495128      3.25087523642354
  C   2.71826155420581     -0.56480308899831      3.45576852421888
  H   -2.73814893232480     -2.09915983320258      4.22685137262023
  H   3.11142371997998     -0.58772278629910      4.46364580337268
  N   -1.07182612724077     -0.88450337303534      1.81615139553378
  N   1.24777845255250     -0.33586462708943      1.91080956084783
  C   -2.74989861755888     -2.30567266848197      1.97501724251097
  C   3.39547359962771     -0.73003803144139      2.22518973301657
  H   -3.54405802099148     -3.00405568875631      1.74766124159574
  H   4.44644534479354     -0.93550096870664      2.07320557460768
  C   -1.92276736190395     -1.66177786416211      1.07320415109098
  C   2.42825471890123     -0.56694434885435      1.25091853054289
  H   -1.86234159867632     -1.68776250532298     -0.00768249370506
  H   2.47057799895832     -0.60110531319835      0.16945542793204
