33
Coordinates from ORCA-job BANSEQ_0_1_tpss_d4_lanl2dz_631gpol_Fe2.opt
  Fe  -0.04433163378817      0.07924134204529      4.24884818740138
  S   3.32288410577182      2.58782135532366      6.17163872975769
  N   1.11457994050120      1.00155518931255      5.39484849117498
  C   2.04261754734187      1.69094933327062      5.70917386056051
  N   -0.42745064506466      1.49989843492040      3.05516101824835
  C   -0.77965153964583      2.78370410880393      3.19991523467868
  H   -0.89672739921730      3.18542686386693      4.19684842201406
  N   -0.35443281835668      1.27379284404486      1.70642518623003
  C   -0.93597521944929      3.39174054943235      1.93308918226159
  H   -1.21495464637309      4.41690209850439      1.73082644787865
  C   -0.66085409964794      2.40817012325494      0.99843962135389
  H   -0.65599770677604      2.41206034681350     -0.08366529400427
  C   0.01076258788037     -0.06731653442330      1.27833352562697
  H   0.02729641027770     -0.10207401860413      0.18872121373889
  S   -4.25659124619881      0.52788886561594      6.07405732312455
  N   -1.52451128969330      0.29220243598237      5.38120104244268
  C   -2.68345373279912      0.41127025607943      5.66013833114972
  N   -1.14902581132550     -1.06861049743231      3.13030701796000
  N   1.49299039759322     -0.35150814328801      3.14762666810897
  C   -2.21707813405378     -1.85989868408765      3.31990330031891
  C   2.81023160366453     -0.51303225454218      3.35366683990144
  H   -2.57396513942472     -2.03366391929647      4.32590515650851
  H   3.19285676976027     -0.48794857375420      4.36490302235036
  N   -0.96251816124482     -1.02247907266263      1.77301148114606
  N   1.32517709727065     -0.40507876882040      1.78809381961693
  C   -2.72231575021902     -2.31797926666369      2.08246797406775
  C   3.49060326677531     -0.66496754780427      2.12465834937425
  H   -3.56721116521353     -2.97455147376672      1.92449449965402
  H   4.55130076161243     -0.81963010067876      1.98052174089221
  C   -1.91598983180774     -1.75361555494033      1.11001998622716
  C   2.52326670845517     -0.57450936118873      1.13964491476454
  H   -1.92121435462934     -1.81951462502355      0.02977237924514
  H   2.57338312802412     -0.63344575029385      0.06020232622515
