34
Coordinates from ORCA-job BANSEQ-oxo_0_3_tpss_d4_lanl2dz_631gpol_Fe2.opt
  Fe  0.03568786327732     -0.22700787483955      4.49865337104662
  S   2.96236655763860      3.04423299121559      4.96677782043052
  N   1.15305799212630      0.94439646792864      5.52331143316948
  C   1.91991733417733      1.83255026465449      5.26558867662575
  N   -0.38633361730275      1.44356010655995      3.25346654289299
  C   -0.74141211458028      2.71307553754415      3.46563072306209
  H   -0.82750757921247      3.07181384640045      4.48237627008947
  N   -0.36309745452439      1.28458367071465      1.90209359325231
  C   -0.95061291922712      3.38190545350094      2.23753287448272
  H   -1.24375863487951      4.41288679731030      2.09391385784509
  C   -0.70288510208007      2.44265361891365      1.25191163552976
  H   -0.73540561912540      2.49347567459074      0.17114643894427
  C   -0.01457233518691     -0.03128644389268      1.40505652265912
  H   -0.01835575912685     -0.01807813461820      0.31490477730098
  S   -4.12288318019623      1.19899567399156      4.95560900318407
  N   -1.51419570193289      0.25960728159781      5.50570259512294
  O   0.39080023136397     -1.60932744832973      5.30067359494379
  C   -2.61740841341851      0.65939488952516      5.24927097851583
  N   -1.13892413252491     -1.18354132158394      3.20991374407655
  N   1.53513383378365     -0.48442268690795      3.20974658823885
  C   -2.16590881851133     -2.02336359971553      3.36311900591899
  C   2.84858336683369     -0.67412743066399      3.35940745461175
  H   -2.46630594610783     -2.30557435077308      4.36296851874886
  H   3.25323349642595     -0.77085666561340      4.35759851292572
  N   -0.98573086235907     -1.00987807818683      1.86614574112804
  N   1.31423769678099     -0.39882967185225      1.86585178650722
  C   -2.69162063637108     -2.39148634519495      2.10451593447560
  C   3.48913105841864     -0.70115203406213      2.10019482762200
  H   -3.52190196183967     -3.05632766229154      1.90914281634850
  H   4.54345222880190     -0.83907743269117      1.90283209102779
  C   -1.92625069169969     -1.71993241672253      1.16709055812901
  C   2.48700562565131     -0.50860172836533      1.16562576288956
  H   -1.96173503859772     -1.68811810747545      0.08578213620890
  H   2.50049923352506     -0.44894284066785      0.08494381204473
