106
Coordinates from ORCA-job EMULUT_1_5_tpss_d4_lanl2dz_631gpol_Fe2.opt
  Fe  7.16135838215189      4.15442481764089      4.23787715552444
  P   6.19845849438978      5.54527661702005      2.47905965440179
  P   6.60838315047296      2.32875539813928      2.67123780396521
  P   6.76404914106500      2.85258204359556      6.29750396152950
  P   7.34583946114199      5.95752041462124      5.93128775877084
  C   4.62599786204925      6.45029035411392      2.72298642027896
  C   3.38063947518441      5.80121309103782      2.60051346357218
  H   3.32362198279397      4.77320204486921      2.24834385414721
  C   2.19742241546763      6.47065658326062      2.93321953228785
  H   1.24141372163377      5.96255011276205      2.81486627681920
  C   2.24013022326715      7.78869971261079      3.40718149846012
  H   1.31820264682849      8.30721632290457      3.66426296132900
  C   3.47420705570729      8.43785027881072      3.54367077410393
  H   3.51478919373455      9.46251814883709      3.90909912383635
  C   4.65800811100107      7.77490961297425      3.20729371216711
  H   5.61216957917957      8.28875621888191      3.30352660961141
  C   7.36651858594332      6.82943237581218      1.90967223301420
  C   6.98720030596493      7.78160242501481      0.94021771101601
  H   5.98089130304029      7.76325012080379      0.52245924848167
  C   7.89552101296444      8.76235742692230      0.53175365807709
  H   7.60033193210693      9.49714925005857     -0.21543850491789
  C   9.18522914101046      8.79988105543083      1.08503064304767
  H   9.88829555029105      9.56792618345735      0.76661911388868
  C   9.56925805124834      7.85272725386345      2.04144284765574
  H   10.56631000666434      7.88239309776215      2.47522897340969
  C   8.66228267517142      6.86908795773641      2.45336521810822
  H   8.95145890105520      6.11874044081747      3.18833635084433
  C   4.86651622861901      1.78071849207932      2.57514189896659
  C   4.39695014274145      0.83360607997811      1.64295268492000
  H   5.09569753748755      0.34933368916846      0.96164081044979
  C   3.03745086502238      0.50637084357941      1.60203903945686
  H   2.67794144764706     -0.22791134219144      0.88307607599928
  C   2.13610079405002      1.12438377256677      2.48322318036391
  H   1.07952677252072      0.86415142639053      2.44679953882306
  C   2.59340987609638      2.06871090075937      3.41075053688366
  H   1.90120188404618      2.53958470335034      4.10579326160072
  C   3.95487530051282      2.39017646173012      3.45690045379312
  H   4.32516020970076      3.10374177617692      4.19350947461561
  C   7.62704637981594      0.82718859042346      2.51360896648728
  C   8.94043138783979      0.92372026599540      2.00818434877837
  H   9.30958388493794      1.87099400870319      1.61804229246700
  C   9.78219774520413     -0.19375966866065      2.01212638106923
  H   10.78837924221826     -0.11155409410839      1.60385747564990
  C   9.33373884122124     -1.41369184864035      2.53704598644503
  H   9.99134908133493     -2.28105226551407      2.54076014549050
  C   8.03434867436244     -1.51457691706076      3.05175913608135
  H   7.67906650657145     -2.46117494468531      3.45567222721589
  C   7.18502290767554     -0.40336694672410      3.04095691500699
  H   6.17178407221912     -0.49149971118272      3.42951707809668
  C   8.08843255784961      1.60633302381716      6.44392887138815
  C   8.11357124206419      0.68762155785839      7.51389234590737
  H   7.32719142547240      0.70722865305889      8.26810506175968
  C   9.13539937145568     -0.26237043820194      7.59209578538455
  H   9.15351788776675     -0.97359391974887      8.41611406148683
  C   10.13551669558596     -0.30119178745802      6.60713509424933
  H   10.92746455454011     -1.04569319278634      6.67033429525453
  C   10.11747135843697      0.61127925249742      5.54582047239246
  H   10.88683850494301      0.57779563337215      4.77800892675201
  C   9.09475509405614      1.56390252418043      5.46248184120682
  H   9.06595427327856      2.27704422674246      4.63647679815277
  C   5.21843875719355      1.91781104839747      6.56070067232102
  C   4.05870354578338      2.54474186169822      7.06052382848117
  H   4.09504166121621      3.57225011604598      7.41720771002004
  C   2.84393725052211      1.85132836352199      7.10185470731125
  H   1.95927117270034      2.34070863132645      7.50670445332924
  C   2.76688207290591      0.53114549249833      6.63699885206139
  H   1.82071195459598     -0.00572732305257      6.67181871003856
  C   3.91340452681692     -0.09654316696694      6.13319738636437
  H   3.86097397633006     -1.12301441224093      5.77443780389254
  C   5.13057355170856      0.59029997735734      6.09142246286259
  H   6.01970447031726      0.09526361503451      5.70611639454816
  C   5.69487219805050      6.53812308501335      6.45820932347907
  C   4.57506800957065      5.85749042012911      5.94573412653270
  H   4.72432649287256      5.06952713320237      5.20485366677923
  C   3.28247815761346      6.19021186637363      6.36512419558606
  H   2.42604110807758      5.65929613642465      5.95554281000254
  C   3.10082841005275      7.22266785065422      7.29353429835888
  H   2.09700458403909      7.49425961762617      7.61578631035419
  C   4.20969616574201      7.91136632012696      7.80887328158080
  H   4.06484566105724      8.71197830742515      8.53218366239041
  C   5.50311107532407      7.56679631687825      7.40178152299162
  H   6.36276110073679      8.10002794071192      7.80604939380757
  C   8.38473644657171      7.44336804507789      5.75652492604509
  C   7.82824076624627      8.66639191681842      5.32910349721019
  H   6.74882790678391      8.76400068081914      5.23077123119845
  C   8.65419314852584      9.75810202465670      5.04416539591861
  H   8.21171169800670     10.69867750875007      4.72083857848189
  C   10.04438274036296      9.64367398833462      5.17587104116278
  H   10.68575181855483     10.49510394406443      4.95597856902985
  C   10.60740743222023      8.42952187418459      5.59342366927873
  H   11.68665653342197      8.33662161167431      5.70293866654921
  C   9.78615376405425      7.33272507386086      5.87530091658432
  H   10.23900274928059      6.39209415939210      6.18682870184613
  C   5.91382191649321      4.45207658873715      0.98727783519708
  H   4.86654800850490      4.12219207989356      0.98852731528124
  H   6.08221196091779      5.03129509730722      0.06978268763809
  C   6.84208862191962      3.22024241121712      1.04326969658391
  H   7.89356461266681      3.53557068416101      0.99262956279865
  H   6.64032200622663      2.54202809316282      0.20312359945014
  C   6.98004593990275      3.93627662932977      7.80895696046674
  H   6.00139252100618      4.34086741692168      8.09776014368755
  H   7.35754179188019      3.33152000989769      8.64378610304338
  C   7.94582442460688      5.09870990204541      7.48471199136281
  H   8.95600388561692      4.70847523270024      7.29344661586335
  H   8.00255734394745      5.80429080362602      8.32441498031149
  H   8.61895495022777      4.02904685995516      3.42254222588912
