45
Coordinates from ORCA-job ANEGIK-OH_2_4_tpss_d4_lanl2dz_631gpol_Co3.opt
  Co  5.22575345803701      3.99591685332929     10.00152416238591
  N   8.27469769491477      3.86495794795186      9.77027793407278
  O   5.29968078532132      5.61107410105264     10.73528050389590
  C   7.09871263094994      3.91704611813119      9.83597592700253
  N   3.28966292132203      3.73894851024439     10.27283846323008
  C   2.36447294141810      4.07772594016277      9.35059728056014
  H   2.74610990825357      4.46212494480732      8.41036081733175
  C   0.99767602304439      3.96762836154078      9.60537811467421
  H   0.28142594351966      4.26742925169385      8.84517805580415
  C   0.58192193217678      3.48139505770895     10.85387085327688
  H   -0.47647549272385      3.38050096861255     11.08288295153325
  C   1.54144778651613      3.11994840884421     11.80249012473994
  H   1.23288981507079      2.72820790009722     12.76697597780541
  C   2.90362452698514      3.25079200847925     11.49570079885935
  C   3.99615622056676      2.88089527792970     12.40707894445244
  C   3.81582387177767      2.47877444620207     13.73969094369138
  H   2.82189037374798      2.42553834094277     14.17456784978392
  C   4.93786611686475      2.16041313898624     14.51361129100248
  H   4.81484275337140      1.85170613209067     15.54908076050083
  C   6.21270899848559      2.24876781799902     13.94238788680940
  H   7.10841743823051      2.01124368156571     14.51043602173453
  C   6.32796469394621      2.66158282316393     12.60797458644753
  H   7.29248962406154      2.76029068542079     12.11624208041268
  N   5.24552946929682      2.96100167105733     11.86527752043690
  N   5.17226211402546      4.74745634717296      7.99907917033513
  C   5.17551846177424      6.05520319972823      7.67972428951115
  H   4.99499317755695      6.74834621629664      8.49701278370540
  C   5.39531641459117      6.49086491927400      6.36715188194522
  H   5.38672791709053      7.55444923584609      6.14327778240853
  C   5.63257653647482      5.53563406204165      5.36997058050271
  H   5.82207452826685      5.84262808830349      4.34414519671697
  C   5.63345332252157      4.17863891751515      5.70734500149851
  H   5.83104780494872      3.42827066766053      4.94761950095259
  C   5.39963507525494      3.80832564954011      7.04169750672558
  C   5.38752748732758      2.42247184389204      7.53092613899594
  C   5.46528770941689      1.29455851480989      6.69837064759665
  H   5.52822256773318      1.41642581987610      5.62124309263891
  C   5.46490686376016      0.01735939959761      7.26165132848747
  H   5.53470046329253     -0.86147885547710      6.62506174646290
  C   5.37799438131178     -0.11343182004587      8.65392290710208
  H   5.37499800077004     -1.08744810202511      9.13577684145627
  C   5.29702803577074      1.04178676813479      9.43446124942433
  H   5.23761760626327      0.99814732117639     10.51615416341850
  N   5.29369975307354      2.27159428395139      8.88582243596292
  H   6.18201134361970      5.99156713471631     10.95867590370722
