45
Coordinates from ORCA-job ANEGIK-OH_2_6_tpss_d4_lanl2dz_631gpol_Co3.opt
  Co  5.28794767270850      4.12835280443145     10.02945411095623
  N   8.43601038698156      3.58086004237401      9.73155289480621
  O   5.30331992837352      5.82462552967820     10.65322845170445
  C   7.28235109915418      3.79838846802947      9.90016114223288
  N   3.21491624404289      3.80113897573767     10.31323548532647
  C   2.27621154970909      4.22183689178342      9.44993974994992
  H   2.63655027410118      4.59023374483533      8.49362682779844
  C   0.90636105506949      4.19178564442907      9.75180564511084
  H   0.18238934388323      4.53914263839622      9.01935795054887
  C   0.50513348776167      3.70380846029141     11.00163106988736
  H   -0.54759226865767      3.66595186445384     11.27137515591713
  C   1.47850924215088      3.26310817966790     11.90147591893344
  H   1.18385872517631      2.88376084261877     12.87516405356967
  C   2.83769608474937      3.32696862193683     11.53704067989671
  C   3.93942167294078      2.91018065474093     12.41632264059084
  C   3.75632449498875      2.38056872663354     13.70901062542826
  H   2.76032914097762      2.27175328323270     14.12762572159450
  C   4.87308153595087      1.99549782582598     14.45806488644691
  H   4.74638905329670      1.59035492578464     15.45922887890808
  C   6.14822278714887      2.14480639748616     13.90181131921955
  H   7.04498861081422      1.86862942047572     14.45052500857618
  C   6.26354693964292      2.67708194849568     12.60584747488537
  H   7.22951618004548      2.80865265080633     12.12356938188150
  N   5.18999860374595      3.05666365076947     11.89025867304736
  N   5.18810077286802      4.70279529369375      7.99057796215851
  C   5.12234714394543      5.99745650995331      7.63464936675700
  H   4.96683998228461      6.70330146817901      8.44667811651007
  C   5.26591036947129      6.41775405872800      6.30230980883777
  H   5.20980837262897      7.47672126326067      6.06324192114192
  C   5.49585926987730      5.45437031307581      5.30908150418607
  H   5.61869318187514      5.74742290321968      4.26920936456041
  C   5.56731019054897      4.11059658553277      5.67546356518565
  H   5.73951173237945      3.35196539464190      4.91840071360143
  C   5.41014078883253      3.74941413338656      7.03080761889055
  C   5.47707698608483      2.36931090168808      7.51544877416616
  C   5.75030282850632      1.26257285144716      6.67853511030868
  H   5.92840777202082      1.40135069471454      5.61653554156419
  C   5.80011178092338     -0.02049385180446      7.22978287078582
  H   6.01607878973583     -0.88051773276793      6.60072281816262
  C   5.57008123094146     -0.17271243601825      8.60045706898505
  H   5.59591988700581     -1.15010207929862      9.07544005468458
  C   5.31319254903154      0.97676259659009      9.37561639133080
  H   5.15322137714560      0.90332463675002     10.44764863995784
  N   5.26716766310020      2.20688548736526      8.85302645653354
  H   6.13132548603580      6.25294881474772     10.96982258447360
