43
Coordinates from ORCA-job ANEGIK_2_1_tpss_d4_lanl2dz_631gpol_Co3.opt
  Co  5.27047381950705      3.72444139168708      9.87688567733697
  N   8.28724225956585      3.99246082764837      9.75054394675652
  C   7.11601132177874      3.85996113480509      9.79815311122149
  N   3.32285692587233      3.70962293783832     10.11408972865738
  C   2.39472355762906      4.03143270991625      9.18537961585174
  H   2.76960375887108      4.31685284833988      8.20760396002600
  C   1.02718304226022      4.00697098363278      9.46305581479199
  H   0.31514051912440      4.27752845459534      8.68829762285961
  C   0.60616234036432      3.63117786864850     10.74441004885824
  H   -0.45182899768511      3.60159474437658     10.99375301453018
  C   1.56383191886520      3.28822789513293     11.70556582523122
  H   1.25452046650640      2.99129516404784     12.70325783889785
  C   2.92093048956675      3.33149185903459     11.36679251920096
  C   4.02728966416945      2.99503452668864     12.27282991912975
  C   3.88349180031457      2.64073072773591     13.61782247968135
  H   2.89718491443201      2.59912202353343     14.07087210923440
  C   5.02132164420828      2.34874558763935     14.38021706268811
  H   4.91952925637703      2.07295156554942     15.42720778300890
  C   6.28305830441332      2.42037849015480     13.77968577417975
  H   7.19205309187609      2.20813712810910     14.33573426955484
  C   6.37495064913873      2.78009346179694     12.43353147673909
  H   7.32796952585103      2.85990765106281     11.91999177188348
  N   5.27149725310663      3.06228733670209     11.69605971908170
  N   5.25584341430361      4.56874083861194      8.16815487332022
  C   5.26843758392179      5.90318797795690      7.98009704098179
  H   5.20746470434787      6.52595333947554      8.86960056118714
  C   5.36993707215021      6.44548695988363      6.69610486862101
  H   5.38086659784250      7.52468140382508      6.57050684274288
  C   5.46891824795812      5.57879164682576      5.59923987823283
  H   5.55843167781987      5.97631149492458      4.59114055457048
  C   5.46549554145434      4.19395312677671      5.80768440204347
  H   5.55484640343418      3.50818974350578      4.96991900943482
  C   5.36461630125448      3.70837943889962      7.11518480085201
  C   5.38078023332419      2.30934436588213      7.53864602255212
  C   5.45444556103384      1.19018678058436      6.70230757507537
  H   5.49842109051276      1.32666153723286      5.62533148015737
  C   5.48060976905695     -0.09042999570407      7.26225169892099
  H   5.54606575883941     -0.96561710551268      6.62048997459378
  C   5.42820741779223     -0.23051239282334      8.65427775371584
  H   5.45141623468504     -1.20688307519432      9.13054406592040
  C   5.35602797284267      0.91211793230721      9.45343157963677
  H   5.32904948220697      0.86216811291373     10.53473132010601
  N   5.32622140910529      2.14094055095234      8.89761460793254
