43
Coordinates from ORCA-job ANEGIK_2_3_tpss_d4_lanl2dz_631gpol_Co3.opt
  Co  5.18873611572403      3.61688010054550      9.86490862082030
  N   7.87252718550332      4.99792672250640     10.26574847709526
  C   6.80894959851826      4.50641097671645     10.10917535826162
  N   3.25472105621755      3.84252147016527     10.18731582592016
  C   2.32517361684930      4.27862143244881      9.30639973778509
  H   2.68237119373196      4.52657496731465      8.31231929415052
  C   0.98007172776999      4.40204721267350      9.65346256778052
  H   0.26276895075164      4.75473307435847      8.91752877353895
  C   0.58700336430625      4.06486844560026     10.95520498736695
  H   -0.45302287344441      4.15496946053369     11.25998317466250
  C   1.54606645484883      3.60561763681694     11.86581925314646
  H   1.25360860415027      3.33699246530059     12.87664023537319
  C   2.88089984341982      3.49912845499944     11.46210032507858
  C   3.98184481418845      3.02234364414044     12.31060334191293
  C   3.85949347353778      2.63599448420126     13.64957299331227
  H   2.89508142349386      2.67707274743277     14.14742755162802
  C   4.99241754835177      2.19784349950737     14.34650914088433
  H   4.90809865583906      1.90070414135657     15.38918238978049
  C   6.22774852621945      2.15388659699024     13.69031202010771
  H   7.13158463600571      1.82909218411587     14.19852786395242
  C   6.29874435499978      2.55587294846632     12.35463367302026
  H   7.23450495482654      2.57227416615592     11.80495055022832
  N   5.19854800614964      2.97147914854576     11.68417799304214
  N   5.19922926179110      4.41485221914362      8.09857179345155
  C   5.11593207265169      5.74659101669206      7.88202866501286
  H   4.98982138835411      6.37289731191880      8.76075700688050
  C   5.20802583915685      6.27955671856255      6.59513374610890
  H   5.13974542369714      7.35483105333202      6.45470240104588
  C   5.40958464360045      5.40900753715979      5.51642924795792
  H   5.49731010951783      5.79513318733168      4.50375325821696
  C   5.51103667742112      4.03341836720018      5.75234238104381
  H   5.67431509222555      3.34663917008401      4.92692134405238
  C   5.40926263131562      3.55028930523642      7.06282666297697
  C   5.51996399417966      2.14170153822386      7.46496246925745
  C   5.74166362785844      1.06738239076713      6.59696099832349
  H   5.84755233280123      1.23267159498167      5.52867019589705
  C   5.83435114429298     -0.22701256833659      7.12302095841285
  H   6.01064046516570     -1.07128947267056      6.46059574481192
  C   5.70015245810837     -0.42340097977206      8.50449317329854
  H   5.76537226234507     -1.41447390015444      8.94511651472311
  C   5.48161415892052      0.68693653356220      9.32035991675790
  H   5.37243198834548      0.59657443219816     10.39706809888444
  N   5.39535319629194      1.93593856364690      8.81178127403573
