44
Coordinates from ORCA-job ANEGIK-oxo_2_3_tpss_d4_lanl2dz_631gpol_Co3.opt
  Co  5.31189496430122      4.00480640914670      9.96922879107676
  N   8.34353109606507      3.77278932932283      9.65089214042601
  O   5.33660878928950      5.51611166907203     10.63717491667978
  C   7.18010002524413      3.88610706600065      9.78049519578491
  N   3.33264748233003      3.81330488291774     10.13864863568326
  C   2.41950131970651      4.19793138279204      9.22756638130968
  H   2.80016812151194      4.64595481889234      8.31535426159694
  C   1.05016883459067      4.03773158907463      9.45357849418644
  H   0.33913961748180      4.36392251330395      8.69945471510503
  C   0.62842377483249      3.46509874737129     10.65937358208236
  H   -0.43037182458752      3.32905316329233     10.86652436396395
  C   1.58309787961440      3.07400000050046     11.60375891323698
  H   1.27181105979305      2.63519109671418     12.54719681413207
  C   2.94262165061451      3.26270151652708     11.32393697401558
  C   4.04546588972080      2.92513378483743     12.23237005025990
  C   3.89509093781075      2.39129245120934     13.51781646292229
  H   2.90342985422247      2.18221062129500     13.90843006633607
  C   5.02884386136764      2.14337733175956     14.30001620600125
  H   4.91952109122343      1.73591100536815     15.30232308349218
  C   6.29599836528400      2.43511986041080     13.78347519913236
  H   7.20129588744369      2.26828832192368     14.36104409662724
  C   6.39967424633350      2.96425185940504     12.49409113806795
  H   7.35421824245685      3.21496487653387     12.04246907884563
  N   5.29746196250880      3.18441019411706     11.74395222479153
  N   5.31826556678644      4.69293261444586      8.15703293353508
  C   5.40014439566446      6.01130155564001      7.87386501863913
  H   5.41462111719307      6.68959032796849      8.72287029097755
  C   5.47203313964907      6.45751082612241      6.55351758105694
  H   5.53751593575288      7.52399331737185      6.35549830698610
  C   5.47322038713099      5.51452286903914      5.51787789312530
  H   5.53902842549953      5.83423535218152      4.48061277610342
  C   5.40421973083938      4.15209444329528      5.82754153007046
  H   5.41853263670560      3.40798016556879      5.03655527905525
  C   5.33666876230038      3.75117256152669      7.16741462310167
  C   5.30849448616528      2.36739020616442      7.64692850786677
  C   5.32729457081017      1.23284525636337      6.82735247416675
  H   5.34203672589945      1.33763587595156      5.74643114537195
  C   5.34224227881585     -0.03617514752826      7.41428329830257
  H   5.36646268558356     -0.92623287824264      6.79025754479967
  C   5.33764231138824     -0.14263304319716      8.80986948506197
  H   5.36113180579585     -1.10896614623209      9.30607450604300
  C   5.31565443114009      1.02391157918954      9.57700297448365
  H   5.32891053982104      0.99184748824098     10.66044553343177
  N   5.29183693789867      2.24457828434194      9.00699651206434
