45
Coordinates from ORCA-job ANEGIK-OH_2_2_tpss_d4_lanl2dz_631gpol_Co3.opt
  Co  5.32108549407060      3.97884262496672      9.96073972869407
  N   8.34471860273134      3.69595751214670      9.67985780380367
  O   5.35903930949308      5.62530996919264     10.61162703344010
  C   7.17864369942122      3.81712880610232      9.78606017670782
  N   3.35026070691459      3.77950270288914     10.12698700105501
  C   2.44076198462088      4.13692344752383      9.20085908655619
  H   2.82573548117011      4.56534652124259      8.28129431349110
  C   1.07059903171108      3.97766620950064      9.42199906172926
  H   0.36335060923501      4.28449227668737      8.65618040997651
  C   0.64210548118970      3.43160989505382     10.63786679397805
  H   -0.41758181389067      3.29500796988910     10.84038435661279
  C   1.59185596426648      3.06754277576020     11.59803320835315
  H   1.27554001455438      2.65093606960351     12.54986485256184
  C   2.95227151816243      3.25370333456338     11.32068859100738
  C   4.05237801311121      2.93840989658085     12.24135751815354
  C   3.89553012717632      2.39559038027548     13.52249923101016
  H   2.90328700345952      2.17094891145601     13.90288355154526
  C   5.02491526259358      2.15068183679875     14.31181072737780
  H   4.91200008017273      1.73253759042766     15.30937399516861
  C   6.29341053703484      2.45250219766561     13.80335622601164
  H   7.19641862897302      2.28023852107068     14.38303051589964
  C   6.40042709783345      2.98872637938829     12.51758797475970
  H   7.35896794967830      3.23197799122112     12.06900283430314
  N   5.30353148952574      3.22113150912342     11.75664664072163
  N   5.32413435212603      4.70301045921143      8.16651743567417
  C   5.40838092886789      6.01889291479665      7.88929353580756
  H   5.42814532416852      6.68731513755524      8.74441229294469
  C   5.47504787948907      6.47055224894130      6.56796342700551
  H   5.54454826509684      7.53740018041288      6.37361839030017
  C   5.46557075059397      5.53460531717169      5.52700722006502
  H   5.52652779845479      5.85950053325334      4.49102370102771
  C   5.39171108411567      4.17042372376400      5.82996126640918
  H   5.39828035982097      3.42994960815959      5.03537387669676
  C   5.32923169837318      3.76872959934921      7.16928555115571
  C   5.29145812216762      2.38478332270480      7.64638936502793
  C   5.28595011259726      1.24795196599771      6.82878118600667
  H   5.28434572668132      1.35305186044131      5.74777827940729
  C   5.29786040359776     -0.01988585824391      7.41665970515164
  H   5.30424241315223     -0.91071263436085      6.79317476379686
  C   5.31444217336533     -0.12655584969543      8.81317525288356
  H   5.33735017113687     -1.09311789496439      9.30900726328949
  C   5.31503644265542      1.03905096359129      9.58021541601980
  H   5.34599649018937      1.00973435072629     10.66339081976491
  N   5.29263590650673      2.25855265584535      9.00670310843211
  H   5.52274132363415      5.63933206621259     11.58504651021496
