49
Coordinates from ORCA-job ANEGIK-CH3OH_2_1_tpss_d4_lanl2dz_631gpol_Co3.opt
  Co  5.34837316167087      3.79019356054902      9.77798797135733
  N   8.37640317306292      3.76291490751792      9.51251136629945
  O   5.35356924705865      5.63366526702843     10.55274318775155
  C   7.20264148736564      3.77513584958717      9.60853748843392
  N   3.38654859700605      3.73796639298278     10.03824331217701
  C   2.44679046131890      4.09853940073614      9.13847049100164
  H   2.81140661995679      4.50068343149254      8.19841378083628
  C   1.08102268132270      3.96786257470958      9.39926317440591
  H   0.35718482480559      4.27327487580088      8.64850819532596
  C   0.67678606371161      3.44234798071462     10.63254385239778
  H   -0.37881959834401      3.32551700059330     10.86625110512609
  C   1.64829718576411      3.06607306558348     11.56592722110797
  H   1.35226952518575      2.65426677982059     12.52639689968589
  C   3.00307195726077      3.22248477819949     11.24571631275154
  C   4.12407535958596      2.86698104746323     12.12930699235394
  C   3.98991242817788      2.37030990987232     13.43201326170066
  H   3.00403566132304      2.22698969135914     13.86487811444468
  C   5.13619890221215      2.06354322258394     14.17353436039643
  H   5.04396218961923      1.67721418739082     15.18592182628630
  C   6.39536695076114      2.25974864381313     13.59486396020556
  H   7.31123701863143      2.03215283175309     14.13389967824443
  C   6.47494923610842      2.75898762531997     12.29201620880057
  H   7.42347620392276      2.92196631697720     11.78802215543384
  N   5.36379916840281      3.05656966003239     11.57749548371094
  N   5.30005571628288      4.49873648438873      7.98705795294640
  C   5.33332777854754      5.80831806468216      7.66437249498358
  H   5.32443730997260      6.50255045080865      8.49731791124289
  C   5.38194249317907      6.22896734578988      6.33368027673644
  H   5.41007074017697      7.29202687826693      6.11049466566019
  C   5.40679409844955      5.26723313119890      5.31647197789610
  H   5.45482132330484      5.56641480504229      4.27221896078698
  C   5.37956145306723      3.91140575299664      5.65791845055527
  H   5.40855672546348      3.14927752880478      4.88469374149484
  C   5.33230249487231      3.54707883662631      7.00828863086368
  C   5.32928270538152      2.17842350578206      7.52434084153930
  C   5.34715435027077      1.01873238865134      6.74068887746759
  H   5.35261275356442      1.09587956692602      5.65737580869852
  C   5.36954219692085     -0.23228400219568      7.36205636619199
  H   5.39221901477195     -1.14054427316690      6.76487565610740
  C   5.37131043501722     -0.29535803737814      8.75997392862665
  H   5.39691378117314     -1.24545067540093      9.28652838989613
  C   5.35231217070858      0.89141829801613      9.49410316355854
  H   5.37086664112370      0.88813263215620     10.57665725368019
  N   5.32481050968091      2.09711311862062      8.88931722645304
  C   6.48384253285374      6.16581177267479     11.34647223880449
  H   6.25560284151808      7.21219008954816     11.56787117779190
  H   6.60480298994250      5.58194920895548     12.26323259527222
  H   7.36229294037933      6.07450548306348     10.70948112937411
  H   4.53091549748538      5.74380264326066     11.07530388313528
