37
Coordinates from ORCA-job CAFNIG-oxo_1_2_tpss_d4_lanl2dz_631gpol_Fe3.opt
  Fe  -0.00814422749986      2.87997811190635      3.56906577765250
  Cl  2.24403015807217      3.11124823615939      3.72030711898179
  O   -0.02097245918877      1.27740450806255      3.57561447661090
  N   0.00054565576521      5.01426596078649      3.55103645541814
  C   0.84829728513088      5.69499136771594      2.74150378375116
  C   0.88357391347023      7.08810551895719      2.70259916464238
  C   0.03168191937259      7.81474461178796      3.54224555659641
  N   0.10759276402519      2.90951679847787      1.57704494308044
  C   -0.68356129875173      3.70637409575847      0.82011590698440
  C   -0.61520966477659      3.68482490774074     -0.57201853985325
  C   0.28061834802121      2.81182922830114     -1.19925998866174
  C   1.08396849060963      1.98375362219491     -0.40668755485264
  C   0.97528665627976      2.05625435129214      0.98070482532731
  H   1.51446486886753      5.09384211422021      2.13134711162186
  H   1.57789531120053      7.58447437807332      2.02932773125620
  H   0.04375263516514      8.90248593429354      3.53841619869134
  H   -1.37779844382667      4.34557137767269      1.35456545933580
  H   -1.26729168689759      4.33960219774572     -1.14384804259596
  H   0.34742810313471      2.77282038649508     -2.28416804546858
  H   1.78951446918910      1.28374756810512     -0.84588514669884
  H   1.57640658247706      1.44026151494723      1.64127361256111
  Cl  -2.26477283375117      3.12203855619942      3.50692107109207
  C   -0.83078164375595      5.71870013318007      4.35696018643902
  C   -0.83551761559427      7.11264186940238      4.38679306718274
  N   -0.11963384833318      2.89393401435657      5.57751418873883
  C   0.62370545706899      3.72952076487556      6.33993370601944
  C   0.55093633788817      3.70298946840693      7.73205337680031
  C   -0.29775369849752      2.78093788256893      8.35419702019126
  C   -1.05087440828078      1.91210883312977      7.55652456980108
  C   -0.94161398695551      1.99472089420593      6.16948296171400
  H   -1.50789758254925      5.13617295325577      4.97373122080711
  H   -1.51795397756606      7.62820481410312      5.05740785454084
  H   1.28724103085270      4.40592198133879      5.81198261153812
  H   1.16478686862108      4.39102698168102      8.30733709422853
  H   -0.36590158496467      2.73573325700658      9.43884680128004
  H   -1.71921266209913      1.17339817361205      7.99110737063345
  H   -1.50683523192317      1.34885263198289      5.50590609461228
