38
Coordinates from ORCA-job CAFNIG-OH_1_1_tpss_d4_lanl2dz_631gpol_Fe3.opt
  Fe  -0.01859757074911      2.89360849380462      3.58655637599650
  Cl  2.25654018568988      2.88093401186765      3.77126412307084
  O   -0.03188843694903      1.12059720061072      3.63374875556602
  N   0.00122176475609      4.93238091611463      3.56444811228398
  C   0.94943074357472      5.59971623166701      2.85989850684873
  C   0.99620866131640      6.99215997499342      2.82391070606917
  C   0.04610902357204      7.72602776864871      3.54401397953324
  N   0.09485053820248      2.94274820329238      1.59478455879334
  C   -0.70938646739959      3.75337762159242      0.86476551200858
  C   -0.67575621485042      3.75470991388830     -0.52818214903835
  C   0.19982827919501      2.88775515170961     -1.19153769576759
  C   1.01707636219002      2.04447396734202     -0.43024430993673
  C   0.94162255074988      2.09726023821346      0.96028629488300
  H   1.67655415182493      4.98487787046686      2.33951417481399
  H   1.77240106204135      7.48284580902206      2.24263761967903
  H   0.06229091184274      8.81366907617362      3.53435545276890
  H   -1.39144688959905      4.38465766290038      1.42308957988291
  H   -1.33877056651814      4.42116586334844     -1.07335890390393
  H   0.24038291281386      2.86511945229767     -2.27824398400018
  H   1.70823256116070      1.34736899961102     -0.89637212718463
  H   1.56003993622152      1.47019499410462      1.59171231638662
  Cl  -2.27284746150031      2.91239028122954      3.46267806819290
  C   -0.92276931696070      5.64023900927964      4.26164323669210
  C   -0.92523315877752      7.03376482857587      4.27686855806310
  N   -0.12784030349360      2.92666762584301      5.58962069436744
  C   0.63009635416060      3.76652265534183      6.33513088028313
  C   0.55177564995174      3.77984011622077      7.72677169469449
  C   -0.32052844922945      2.89456406549904      8.36975300373097
  C   -1.08782603043335      2.02010752976507      7.59183931606566
  C   -0.97152334450061      2.06055922395109      6.20298680590488
  H   -1.66653303262162      5.05755983585995      4.79559612178580
  H   -1.68531676534710      7.55742721961059      4.85065164542945
  H   1.31061832433955      4.41352523058507      5.79225678489748
  H   1.17738925098102      4.47015280221281      8.28636983799205
  H   -0.39562428698859      2.88142957312163      9.45480810081259
  H   -1.77280716740404      1.30767904649332      8.04387823969728
  H   -1.54569011712287      1.41096755836837      5.55083507526874
  H   0.84678635586055      0.83132397637262      3.98686503736833
