36
Coordinates from ORCA-job CAFNIG_1_6_tpss_d4_lanl2dz_631gpol_Fe3.opt
  Fe  -0.01403409909981      2.78727373842584      3.57499354017628
  Cl  2.02016102212997      1.85194360662174      3.78822206860179
  N   0.00409061437054      4.87528919776658      3.56855206415453
  C   1.08741259276453      5.53993397344316      3.10191139284939
  C   1.13650738498842      6.93308495945334      3.08486978081057
  C   0.02790517924654      7.65395746532846      3.54908182475544
  N   0.12906037209215      2.97477386047495      1.39972463599256
  C   -0.87885602865037      3.61800500109210      0.76100670989573
  C   -0.94105307233190      3.71208568340833     -0.62684183359015
  C   0.07087671610133      3.11550630994321     -1.39152097899769
  C   1.10885221318426      2.44759931962020     -0.73367259845886
  C   1.10631189669421      2.39702312423434      0.66145897983982
  H   1.90985267487202      4.92291939745785      2.74708721188120
  H   2.02440193158212      7.43704106724614      2.71282428018004
  H   0.03719551836357      8.74173883010892      3.54149855578380
  H   -1.65258057497657      4.04478406432024      1.39467334607007
  H   -1.77123289997896      4.23402671336866     -1.09535986634271
  H   0.04577151294980      3.16740322615184     -2.47775546204291
  H   1.91408679490374      1.96617820576948     -1.28291403605464
  H   1.88696087651655      1.88714313105848      1.21894571343049
  Cl  -2.05574220461973      1.86276086989451      3.37542152396619
  C   -1.06774529985591      5.56461478140843      4.02539348507671
  C   -1.09268551419231      6.95869937377440      4.02314858899958
  N   -0.16083492352895      2.98077482716023      5.74997926290599
  C   0.81736508179900      3.67174811349029      6.38417019009060
  C   0.89331163931775      3.75225178912482      7.77221288583187
  C   -0.07099382757525      3.08760859206497      8.54179686188098
  C   -1.07666455949438      2.36815630373838      7.88852263668046
  C   -1.09177340879233      2.33694481087017      6.49291792731031
  H   -1.90055395112724      4.96687249987106      4.38909423347091
  H   -1.97168066954160      7.48319063003837      4.38812590729520
  H   1.55575713387002      4.15133701972848      5.74655280776445
  H   1.69755035591009      4.31640985345518      8.23682198619698
  H   -0.03381628716678      3.12706291674136      9.62824102053623
  H   -1.84333231816237      1.83192382731023      8.44175872251981
  H   -1.84985187256293      1.79083291603487      5.93905663053863
