42
Coordinates from ORCA-job CAFNIG-CH3OH_1_6_tpss_d4_lanl2dz_631gpol_Fe3.opt
  Fe  0.08980615757148      3.06844295536189      3.55738150421138
  Cl  2.41600489132781      2.98653346372275      3.67052613359751
  O   0.07674445944659      0.94386177925793      3.55092218887282
  N   -0.00447219490375      5.21080085290109      3.57703515536886
  C   0.96829106212031      5.93893106309110      2.97892773950240
  C   0.93069395057299      7.33267066504393      2.95109465619448
  C   -0.14071112785922      7.99429935532427      3.56463066859794
  N   0.18887590437686      3.12991085671880      1.39457544109136
  C   -0.67759055506266      3.89311853059681      0.68832571739514
  C   -0.67333784709160      3.92073392095123     -0.70519700304915
  C   0.24491324488985      3.11912915485857     -1.39527803830485
  C   1.13098947766474      2.32038125423896     -0.66283526304356
  C   1.07798233682225      2.35566227234707      0.73070162399036
  H   1.78017228929915      5.36966746749264      2.53402625924771
  H   1.72999271754932      7.88203268488381      2.46040541186835
  H   -0.19419748699503      9.08096643202740      3.55935903755898
  H   -1.38693598890534      4.47260298788595      1.27257851363900
  H   -1.38399069499088      4.55152404586460     -1.23295165909543
  H   0.26733538053083      3.11544967396449     -2.48300249619724
  H   1.85858475095487      1.68113202000979     -1.15621487830034
  H   1.75447928921990      1.77320099685183      1.34908894963854
  Cl  -2.25149014003332      2.80398252478579      3.38053487802032
  C   -1.04336381196608      5.84605546505150      4.16914817930515
  C   -1.14250497016154      7.23677541707417      4.18491529446614
  N   -0.05105816675234      3.14763431690715      5.74887916034284
  C   0.89127402723043      3.81994470284299      6.45267722584183
  C   0.87191135006153      3.88805902918443      7.84545143372559
  C   -0.14705975027449      3.22841897207929      8.54350799819319
  C   -1.11916888584982      2.53030238576202      7.81722006083705
  C   -1.04266119866276      2.51890908194099      6.42425214806390
  H   -1.79767790545428      5.20444033934858      4.61656232751695
  H   -1.99231706567624      7.70980058766412      4.67024049219080
  H   1.67289215948264      4.29435463743364      5.86617351812480
  H   1.64818938767885      4.44288561839668      8.36616693003057
  H   -0.18369838715003      3.25919209912404      9.63043236824801
  H   -1.93174133689640      2.00668448311173      8.31453364759693
  H   -1.79015907653765      2.02115453328990      5.81225927545022
  C   0.82789230614191      0.04325619902953      4.41847123431484
  H   1.84954043110509      0.42493261468887      4.42131625438408
  H   0.41047433282322      0.06005730998304      5.43169962342837
  H   0.78914923912036     -0.96555272089136      3.99551342777271
  H   -0.86381255476758      0.66672996979774      3.48252485936121
