38
Coordinates from ORCA-job CAFNIG-OH_1_3_tpss_d4_lanl2dz_631gpol_Fe3.opt
  Fe  -0.01474877532102      2.88639430730296      3.59185297038342
  Cl  2.28150725918073      2.90855170162499      3.74371206912544
  O   0.00535134575858      1.12699562191900      3.63111999411511
  N   0.01200407162809      4.93525490334552      3.58491327140999
  C   0.94201915333008      5.60778916458893      2.86201909918553
  C   0.97383372178393      7.00060768911474      2.82406274625645
  C   0.02900328545495      7.72549027063234      3.55985189715866
  N   0.09038209886837      2.93006482519811      1.59120863357454
  C   -0.71052035934312      3.74056129032588      0.85751031263542
  C   -0.66983378912150      3.74129294408043     -0.53546765654462
  C   0.20759746776847      2.87293648370146     -1.19399231103411
  C   1.02168124745838      2.03107161956737     -0.42842792727368
  C   0.94065674214821      2.08516673930446      0.96198309220678
  H   1.66669980048337      4.99864941164954      2.33162765975438
  H   1.73564485004222      7.49799576740153      2.22967223967977
  H   0.03537294345240      8.81323797628638      3.54982086761877
  H   -1.39430542633456      4.37417649173375      1.41110039691030
  H   -1.32977049105442      4.40829059381211     -1.08374206775813
  H   0.25231905701264      2.84859923132851     -2.28050650066432
  H   1.71548471632534      1.33389333858123     -0.89049738039689
  H   1.55684230283619      1.45954470476330      1.59627101817563
  Cl  -2.27884921379985      2.92738752421405      3.44437810003991
  C   -0.91053768060548      5.63217523588874      4.29479537400896
  C   -0.92507399320337      7.02539413058137      4.30823417205199
  N   -0.13807094693196      2.93666155166786      5.58891688476150
  C   0.64910168376005      3.74996758977883      6.33370960161831
  C   0.57144683589948      3.76376210749909      7.72534683202286
  C   -0.32872874672277      2.90588170540656      8.36711722546420
  C   -1.12330159877096      2.05605041601177      7.58888675080614
  C   -1.00669771766231      2.09450175207815      6.20025399547581
  H   -1.64339515601835      5.04124225737340      4.83450409595464
  H   -1.68174880403241      7.54267918252185      4.89214068341720
  H   1.35084639965871      4.37279892812087      5.78992503375358
  H   1.21923533023216      4.43247015181196      8.28593124706730
  H   -0.40404179878593      2.89409635430703      9.45220783529973
  H   -1.82960314415538      1.36457012617231      8.04054270908954
  H   -1.59701930604367      1.45976908124689      5.54844510468318
  H   0.90828663482472      0.83439682905661      3.90617192996662
