42
Coordinates from ORCA-job CIDKAE-CH3OH_1_4_tpss_d4_lanl2dz_631gpol_Mn2.opt
  Cl  3.19597905786215      1.80989518815804      1.96935581623137
  Mn  5.46423993260577      2.08561916331247      2.49617300014978
  O   4.37022409795394      2.89686357458017      4.58963522535521
  O   5.32532475744877      4.98875802116662      3.26915792203245
  H   4.85153221599133      4.43562309176107      3.95755583523213
  N   6.02667212895145      5.92774916481490      0.96705556101290
  H   5.63643638822635      6.50224651773503      1.71023065356445
  H   6.05847426824856      6.34192011619349      0.04336974936724
  C   9.03427433323942      0.48403993427888      4.01602283099811
  H   9.46583721777919     -0.51447402783621      4.01463306423168
  O   4.82909896324729     -0.81157757808989      2.07959401438173
  H   3.98138787269250     -0.29879139096244      1.96672721233067
  N   6.07582956210924      2.32509421425591      0.41980828757303
  N   7.21170023531944      1.97331776601094      3.41176171431377
  N   5.68591578354324      0.16701326469630      2.59425895268067
  N   7.18635103253225     -1.63691616030293      2.82775227069596
  H   6.40608731881370     -2.26284663085683      2.64223761867043
  H   7.93074429270878     -2.02458851108739      3.39679072695270
  N   5.52421372019452      4.03873785318140      2.25208031263669
  C   5.87783476092311      4.58622298316357      1.10417054464846
  C   6.14225465205774      3.62611503671956      0.02157466427482
  C   6.40671233983376      3.98112886253483     -1.30671603126617
  H   6.47173448604620      5.02317549638479     -1.61137465989168
  C   6.57793560070942      2.96489789180266     -2.25258699502093
  H   6.77983274592723      3.21536347456885     -3.29134282066934
  C   6.47559211702054      1.62855772932950     -1.84652685642747
  H   6.59197422847676      0.81324032283676     -2.55568358157285
  C   6.22517703936325      1.35370836140508     -0.49901892425732
  H   6.13255604426919      0.33529383997876     -0.12822384687242
  C   7.90752259487878      3.00716764256597      3.95585039544967
  H   7.42534280230693      3.97937730129213      3.89653428004664
  C   9.15655348284663      2.83627809844424      4.54145566392779
  H   9.67217530572967      3.69554770938379      4.96189599899107
  C   9.74362519918195      1.55634275502959      4.55380003365319
  H   10.73301769184468      1.40350479885028      4.97736059101600
  C   7.75752557754914      0.70427001814933      3.47942802181278
  C   6.86411500548961     -0.32027554927291      2.97461130594244
  C   4.63149587715189      2.28611975357658      5.88010697529817
  H   5.63227760915671      2.61279989424589      6.17243596554060
  H   3.89650738595175      2.62695373534487      6.61788744208809
  H   4.60872107954463      1.19372005492914      5.79007156466543
  H   3.49026319427215      2.60883621772713      4.24836950021192
