38
Coordinates from ORCA-job CIDKAE-OH_1_5_tpss_d4_lanl2dz_631gpol_Mn2.opt
  Cl  2.95414180268939      1.66877049005965      1.82160089770310
  Mn  5.13986026496072      2.29635878031696      2.63496014037464
  O   4.58847279002724      2.70657788687428      4.32459158023899
  O   5.09640535560076      5.14066208562244      3.44486384378848
  H   4.75909202439228      4.47048807595312      4.12676548507504
  N   5.83941339502599      6.11441415745794      1.05026004944888
  H   5.46409162499770      6.71893854203559      1.77842270061660
  H   5.78860665122535      6.48046006514553      0.10568187495923
  C   8.81621030674872      0.52120584716506      4.45963423501650
  H   9.09820765773219     -0.50510114046953      4.68254268121711
  O   4.77981354124051     -0.75076343051059      2.21029074854523
  H   3.92062694601785     -0.26034419332026      2.04990460465185
  N   5.79964181975431      2.47329228731065      0.68065416442667
  N   7.28996237706190      2.09734712364373      3.46254268527542
  N   5.58476710780178      0.26159931693910      2.74831290801611
  N   7.04398355953051     -1.51625110690663      3.14558783446384
  H   6.29333311772990     -2.16460178800016      2.92246143784300
  H   7.86259561533784     -1.88596744140034      3.61117685487545
  N   5.37714865194696      4.26199347464782      2.41897613789265
  C   5.71534394061446      4.78023648842691      1.26121344441883
  C   5.99669980422180      3.75231568116583      0.24244166879868
  C   6.40515963246102      4.01543410460713     -1.06703292492811
  H   6.58274813256143      5.03445510157966     -1.40124062518717
  C   6.58946357433509      2.94045720182185     -1.94616958319676
  H   6.90458614705455      3.12444955158156     -2.97055875399902
  C   6.35562272185327      1.63781808997759     -1.49610143657194
  H   6.47239805342627      0.78165246746933     -2.15446542720212
  C   5.95890082153454      1.44301138733322     -0.16906654216426
  H   5.74107618246561      0.45772191745897      0.23378902671270
  C   8.03591937025940      3.10589279891032      3.93834278846924
  H   7.66807375468803      4.10770553372286      3.72735643194745
  C   9.20836367988098      2.89389018117297      4.67386935940681
  H   9.78748317204051      3.73971023777340      5.03486679369533
  C   9.60258071856761      1.57824026009360      4.93415459721973
  H   10.50254607488435      1.37181538873282      5.50889060593408
  C   7.66211591199188      0.82044414807302      3.72592990516114
  C   6.73122407792003     -0.20120975041458      3.19871132408893
  H   3.65914961941676      2.40313017794900      4.43503848296748
