36
Coordinates from ORCA-job CIDKAE_1_2_tpss_d4_lanl2dz_631gpol_Mn2.opt
  Cl  2.94674336640552      2.14562473637920      2.64153822243635
  Mn  5.23551984303607      2.21883291440429      2.59936839935218
  O   4.42212332713877      4.98946700776391      3.30702133544771
  H   3.63749400665188      4.43945700601933      3.55919647519597
  N   5.52681764335830      6.07613505261460      1.15970640880897
  H   4.90432503358430      6.57065114752889      1.79779542512811
  H   5.53003339273369      6.42180920135574      0.20496707405156
  C   8.82253671691588      0.48866017426001      3.91819949473240
  H   9.15296022931429     -0.53725890100041      4.06188872287731
  O   4.33218093646334     -0.64195006446632      2.65200797656609
  H   3.52142305485614     -0.06678325370161      2.60099124576644
  N   6.02108249480556      2.47576313160610      0.84121562510709
  N   7.08095258044314      2.04424503390376      3.26690320885075
  N   5.34384985030459      0.29837439900949      2.85348574049003
  N   6.64935633118718     -1.58286430583551      3.43080598993512
  H   5.79335786160850     -2.13411692438326      3.40679627766310
  H   7.35496601668104     -1.90926437719866      4.08320205241383
  N   5.10986713974927      4.12680095261340      2.43231708419964
  C   5.59073536620036      4.73211568848977      1.36055377493356
  C   6.18565114143193      3.77908769076012      0.43068157702745
  C   6.81111875847112      4.09601960310613     -0.78070226285291
  H   6.95714439662789      5.13550535391910     -1.06547959962520
  C   7.24896709190736      3.06148123875363     -1.60962246208063
  H   7.73374852380557      3.28463463878511     -2.55664605958217
  C   7.05310147924243      1.73326108295155     -1.20052862509368
  H   7.37073227485345      0.90003384745780     -1.82174878980837
  C   6.44939613758153      1.47887763510831      0.02917877951208
  H   6.28528377840662      0.46973849968359      0.39423691281387
  C   7.93839434696276      3.06722585879694      3.49557972526334
  H   7.54410204422177      4.06183684643276      3.31074284245496
  C   9.24314052157459      2.86316138491613      3.94275975080513
  H   9.88969886570775      3.71901548284830      4.11655031706342
  C   9.69793415053272      1.55294167123931      4.14833865428594
  H   10.71503608111974      1.36389208429638      4.48258961083963
  C   7.51644715063388      0.75859182144799      3.49488707875253
  C   6.47707806548067     -0.24130335986604      3.27052201626828
