38
Coordinates from ORCA-job BOMXAC10-CH3OH_0_2_tpss_d4_lanl2dz_631gpol_Fe3.opt
  Fe  1.15086474294316      2.47922103581247      0.79454049044159
  Cl  0.20663423467103      4.53538632220416      0.94567848714087
  Cl  -0.78240861798032      1.31728582115935      1.21028694739624
  O   1.65765101961809      2.55664124687533      2.69231193450311
  O   0.85259280661682      2.28710071731639     -1.00733535663538
  O   1.95713664172564      0.57728451615696      0.64810144849662
  N   3.40617413769469      3.67145264637200      1.79920930345445
  N   2.80569138688773      3.37975906818935      0.58033615131059
  C   3.13632010383144      3.63268517193373      4.23548963187969
  C   4.46565135079769      4.00907138972830      4.51401068056156
  C   4.82639952649965      4.36548693140844      5.81547023352219
  C   3.86705231126714      4.34658512323097      6.83898436856073
  C   2.54612121771321      3.96316526329476      6.56358465349662
  C   2.17656707374729      3.60183638183302      5.26650514526199
  C   2.68994043602155      3.26403696695082      2.88677250146520
  C   3.30347076771681      3.88731126856025     -0.52271054352031
  C   2.68988321054204      3.70454553655588     -1.79345964558535
  C   3.29846330760762      4.31044437957809     -2.92743899220189
  C   2.76453552279651      4.16377315700748     -4.19540677191632
  C   1.59125329475082      3.38934432546021     -4.36536697707140
  C   0.97324583213453      2.78062409760632     -3.28422758497005
  C   1.49325111866663      2.91937403325577     -1.96764107748817
  H   4.02505362551258      4.48070269266246      1.84743193286259
  H   5.22259524641248      3.98630178365447      3.73025687372885
  H   5.85448728757659      4.64727426138187      6.03446117651032
  H   4.15155818124208      4.62606956596096      7.85191386573152
  H   1.80435139783055      3.94942019474951      7.35958413551564
  H   1.15734574861200      3.31005368186578      5.02516617835762
  H   4.21891790985195      4.48347206840423     -0.46178590223439
  H   4.20149654147142      4.90272692025612     -2.77542511308796
  H   3.23808061768682      4.63922851345405     -5.05154856815312
  H   1.16189768281575      3.27463837847026     -5.35973521040494
  H   0.06750281941784      2.19050845457292     -3.39974194517721
  C   2.24353611177260     -0.14675786902367      1.87794191883648
  H   3.14756924226501      0.30102513881654      2.29573234948535
  H   1.40345925004290     -0.05290079286245      2.57485337299675
  H   2.43231056444322     -1.19600021164875      1.62250977415868
  H   1.10283634677619      0.21320181879539      0.29880013277108
