33
Coordinates from ORCA-job BOMXAC10-oxo_0_2_tpss_d4_lanl2dz_631gpol_Fe3.opt
  Fe  0.99615271569892      2.31619499109803      0.82793451245861
  Cl  0.33105889535412      4.58914301645552      1.12907604062634
  Cl  -1.06152947576535      1.58006546530903      1.26459481740583
  O   1.44981192080280      2.52697186853315      2.79541736957980
  O   0.58687191654847      2.40745589293895     -0.93392344322487
  O   1.79937404185599      0.90824265181461      0.91560633573484
  N   3.30442504722842      3.45788189737332      1.86475469707066
  N   2.73917609846143      3.20570760791861      0.63966256307385
  C   3.05452221171481      3.45330391846704      4.29800085918890
  C   4.42220309423825      3.66733207889953      4.56050718008714
  C   4.83343658231456      4.00753737601275      5.85156186627143
  C   3.88624650077342      4.13407761624900      6.87841150131356
  C   2.52602715869602      3.91070327636386      6.61855254286537
  C   2.10541144836930      3.56668999349687      5.33252324851678
  C   2.55113042782773      3.11198837398999      2.95948832669615
  C   3.34924414871025      3.50453077842605     -0.46643008775430
  C   2.73596181853048      3.29026691365966     -1.74753511759466
  C   3.46950478657928      3.64698371038643     -2.90141062294443
  C   2.92735723326759      3.51822119047774     -4.17674019361177
  C   1.60922119288724      3.03625467121699     -4.32610101068691
  C   0.85346672794265      2.68844977880003     -3.21536734771944
  C   1.39369580199047      2.78643796189742     -1.90163498165178
  H   4.04988125061602      4.15001879041427      1.92783652535639
  H   5.16662763373506      3.52638379150655      3.77735420798001
  H   5.89028771686629      4.16268389046440      6.05982569090573
  H   4.21051404401948      4.40056971611921      7.88290272413072
  H   1.79400257794328      4.00714406378976      7.41780086052794
  H   1.05658739775609      3.39534082338061      5.10317432876906
  H   4.34181976954270      3.96395390209449     -0.43180976028335
  H   4.47987598626905      4.03537796701428     -2.77550775640953
  H   3.51310842792011      3.79735806251416     -5.04958774221954
  H   1.17624827952901      2.94098557573734     -5.32021398616937
  H   -0.16552337822406      2.32104238718019     -3.30292414828923
