38
Coordinates from ORCA-job BOMXAC10-CH3OH_0_6_tpss_d4_lanl2dz_631gpol_Fe3.opt
  Fe  0.76710273088558      2.47077212195054      0.86201523926901
  Cl  -0.03908858226206      4.63609840024666      1.15862264852347
  Cl  -1.02749713840559      1.14463151700733      1.37459047222542
  O   1.66067437227240      2.52700080606145      2.82264587795029
  O   0.89056927853237      2.28246260703747     -1.03846184338149
  O   2.04755136042918      0.60747742137709      0.77188493278004
  N   3.28556271895017      3.76509458712643      1.83026084341966
  N   2.71084358580873      3.44812991907725      0.62355510509063
  C   3.18256102536493      3.68338970871701      4.26483922267696
  C   4.51898545337655      4.08576447407338      4.45720824722657
  C   4.95360912415165      4.46654960879247      5.72953789836187
  C   4.05998202323187      4.44799620715829      6.81028386440700
  C   2.73208614581223      4.03730627191027      6.62156695698847
  C   2.29160688994632      3.64891635573042      5.35449985701764
  C   2.65696923557431      3.28292264195780      2.94590788979692
  C   3.22282215577276      3.96295630685286     -0.45987595652962
  C   2.68604784191701      3.73888375998494     -1.76998529524368
  C   3.32814944263483      4.36200057439637     -2.86921052331510
  C   2.86814311573439      4.18961198820635     -4.16782874693829
  C   1.73776834673069      3.37510076651267     -4.39341437212241
  C   1.08534013674683      2.74688969116602     -3.33791547404894
  C   1.53469143895704      2.90784583757595     -2.00240764251404
  H   3.92262385909619      4.56112027873220      1.88866563734132
  H   5.22873913294131      4.06169389863684      3.63048746371664
  H   5.98887092833172      4.76647950953603      5.88060658726534
  H   4.40109522514448      4.74727612191636      7.79987683070312
  H   2.04073774436641      4.02193680697615      7.46182296994772
  H   1.26612316428726      3.33147024789752      5.18169660899366
  H   4.10121167080556      4.61722533671507     -0.38107996415365
  H   4.19828561847888      4.99008157993768     -2.67423361808548
  H   3.37044358248070      4.67822096794688     -4.99972805259968
  H   1.36660134459957      3.23754745124953     -5.40812537149928
  H   0.20935113066932      2.12333973510350     -3.50070228017416
  C   1.90968494476243     -0.44281208071780      1.76336762819223
  H   2.18942252222884      0.01296773732640      2.71493408298396
  H   0.87207997047507     -0.79141481483550      1.81634855074362
  H   2.59504131831181     -1.26544205780664      1.52042856505772
  H   1.69469714085797      0.28388770846640     -0.08457484007362
