32
Coordinates from ORCA-job BOMXAC10_0_4_tpss_d4_lanl2dz_631gpol_Fe3.opt
  Fe  0.81693458077220      2.73464073241195      0.88576841833739
  Cl  0.18988325265022      4.98729913660247      0.94402977397924
  Cl  -1.00407355084416      1.56338022007507      1.37505682132481
  O   1.43716268315018      2.63153117890014      2.76009531396841
  O   0.70507613526059      2.25028653631869     -0.89553089904030
  N   3.30618588514928      3.50535296543979      1.85551509080550
  N   2.67898056071046      3.26879899146393      0.64293598362280
  C   3.07174372218157      3.46471698883362      4.29736659452929
  C   4.43783581811939      3.69278544366228      4.56013819034067
  C   4.85517928774000      3.97013482446290      5.86338253288291
  C   3.91585509049405      4.01999399067930      6.90452438443879
  C   2.55799563043990      3.78308917596520      6.64522054039951
  C   2.13136968460144      3.50119332280296      5.34611033819610
  C   2.56337238896086      3.18360033143617      2.95017504804715
  C   3.29702377512888      3.57366843811369     -0.47444007847050
  C   2.71855100960485      3.34624298966110     -1.75150165731184
  C   3.43746852362277      3.75044703987869     -2.90995231855086
  C   2.93125187305110      3.52377089616641     -4.17747124958740
  C   1.68180996730748      2.87187028062590     -4.31604432222115
  C   0.95590401470425      2.45974567967819     -3.20746540088630
  C   1.44450662298766      2.68739298762192     -1.89365575458712
  H   4.09647482614887      4.14812022544098      1.88884392175587
  H   5.17839581549785      3.61475319162395      3.76468000055659
  H   5.91039645517784      4.13687561245842      6.07010390634072
  H   4.24514419743173      4.23715187341243      7.91906487675932
  H   1.83255154210573      3.81948309615431      7.45518385896035
  H   1.08442050367278      3.31791193445236      5.11777157597669
  H   4.29046824952429      4.03020712544907     -0.42132210694157
  H   4.39817827263521      4.24824725726164     -2.77858550385806
  H   3.48349204506072      3.84402753284549     -5.05779245570391
  H   1.27765213122339      2.69488417014622     -5.31166317133598
  H   -0.00579099427152      1.96259582995461     -3.30264225272718
