32
Coordinates from ORCA-job BOMXAC10_0_2_tpss_d4_lanl2dz_631gpol_Fe3.opt
  Fe  0.89044527783133      2.65566517014596      0.88012476295837
  Cl  0.30368549134995      4.85270746486490      0.95501181075817
  Cl  -0.98817729760284      1.59157717568686      1.36280446490973
  O   1.44105992228024      2.63642776698869      2.75054813057077
  O   0.70060382533551      2.26378978909678     -0.88792019869819
  N   3.33567930712018      3.45798881285910      1.85569667708697
  N   2.70362079133381      3.22461004948760      0.64419121064787
  C   3.07102883530379      3.46096520470025      4.29750609488990
  C   4.43963257225133      3.65553728431312      4.57259275135724
  C   4.84900147745975      3.94838752798646      5.87519635258005
  C   3.89899713126749      4.04707812996189      6.90297486719568
  C   2.53802572611595      3.84342791845722      6.63129333701219
  C   2.11921762453125      3.54677617079243      5.33300191718500
  C   2.57347968875703      3.16886077463763      2.94949629044491
  C   3.31173641428241      3.55393900816254     -0.47323881466795
  C   2.71385244221885      3.35183197306253     -1.74876430009858
  C   3.42333894012291      3.76063449266330     -2.90979252917704
  C   2.90523150744703      3.54594522983931     -4.17610540534110
  C   1.65366311309153      2.89987886915219     -4.31504437437051
  C   0.93726124811048      2.48152953573839     -3.20279811933958
  C   1.43601861219933      2.70328589562722     -1.89248237424946
  H   4.10481526469951      4.12643968387678      1.88636579382154
  H   5.18578074375716      3.53858060661655      3.78699729632541
  H   5.90605959942167      4.08879308186942      6.09205557150538
  H   4.22195792063696      4.27615571395318      7.91698486256788
  H   1.80412649189983      3.91776638284631      7.43106915794449
  H   1.07003964856970      3.38960837957801      5.09521852981322
  H   4.31292224617617      3.99147731179221     -0.42235126009010
  H   4.38840800950860      4.25182253068679     -2.78455367436321
  H   3.45489003797642      3.87057816603984     -5.05674276007221
  H   1.24233205303254      2.73360052132062     -5.30942529726666
  H   -0.02733466648597      1.98853337719580     -3.29201077184021
