112
Coordinates from ORCA-job CEVXOT-OH_1_2_tpss_d4_lanl2dz_631gpol_Fe2.opt
  Fe  4.32279061869565      0.83408451264707     -0.33384956664569
  S   2.46970830062132     -0.69384458953011      3.36937924237155
  N   3.44539885071608     -0.58390085902784      0.71877763535285
  N   5.62832947929462      1.03335636877000      1.17021973052111
  N   3.33367679853892      2.10983992249538      0.77598654294725
  N   2.10989589344210      2.68122818956068      0.74052378751836
  N   3.01714182536504      3.02366162870255      2.74027924197684
  N   3.33022148614571      3.51958750360436      4.01497812185181
  N   0.37824642737440      4.15184268740627      3.57192700314102
  C   3.02612164893488     -0.63414743234731      1.84545096261741
  C   6.85130758171222      0.47839008189743      1.22781419095656
  H   7.14699204542723     -0.10878607536018      0.36364457334736
  C   7.68008646640611      0.63146768142868      2.34416003300096
  H   8.66123686985121      0.16358029768005      2.34503109512489
  C   7.23190124677330      1.37967681963643      3.43758379924181
  H   7.85696917833443      1.50658371845680      4.31863839972780
  C   5.96634218818972      1.96804774626446      3.38424286773897
  H   5.56775777446967      2.56790271259867      4.19612690310503
  C   5.19863290142006      1.77856832898277      2.23132034174762
  C   3.89266113626084      2.32513672374232      1.96909701115735
  C   1.90732082247561      3.24369653352628      1.93771448693345
  C   0.71870428640676      4.03771657619249      2.26939865723946
  C   -0.01345406892899      4.63598874801533      1.22729876476834
  H   0.31706566809176      4.52312249805060      0.19825518273081
  C   -1.14752404209562      5.38039233909310      1.55876388468520
  H   -1.73766284803517      5.85766966958255      0.77890118173152
  C   -1.50288455914803      5.51398577707275      2.90681722622935
  H   -2.37608803000593      6.08931074786290      3.20592265889890
  C   -0.70520270840533      4.88559454689298      3.87155335479598
  H   -0.94403830886969      4.95742948727828      4.93243136963236
  C   2.48624959183669      3.09424771300060      4.92276400662217
  H   1.72626395517694      2.36495992661297      4.65500110307103
  C   2.58516167767130      3.54692605365238      6.29161677496287
  C   3.68195199288932      4.35206445372023      6.68167680528430
  H   4.41132055330196      4.63134759289485      5.92464483785681
  C   3.83377839437215      4.77260355516757      7.99165505039983
  H   4.68977297409548      5.38276083561627      8.27648540925639
  C   2.88354189669251      4.41843337049284      8.97872000113487
  C   3.02739481151224      4.83793171791362     10.34085919347103
  H   3.89747187764883      5.43552757243517     10.60959685175001
  C   2.09577499979270      4.50069217139099     11.28907657207935
  H   2.21811070784781      4.82589237319069     12.32157393818341
  C   0.94188831066497      3.71985751747112     10.94899418428972
  C   -0.03020365385717      3.36708726767505     11.90792784813055
  H   0.10088928167676      3.69409484518509     12.93869800272181
  C   -1.14900907731264      2.60888768887891     11.54917818469242
  H   -1.88894979455744      2.34603484391868     12.30273154888868
  C   -1.32257129369465      2.18766366109931     10.22707825885905
  H   -2.19643981443622      1.59890855351162      9.95040465958057
  C   -0.37456083578819      2.51523507576761      9.23613818294521
  C   -0.52330049112880      2.10854160706047      7.87013366212186
  H   -1.40497747639180      1.53165625699058      7.59269285304450
  C   0.40948655214760      2.43043612629081      6.91767764773479
  H   0.23914212312196      2.11707477167447      5.89124700907066
  C   1.58462191968871      3.18785087125085      7.24805024991404
  C   1.74663736199365      3.62866100286839      8.60482403284730
  C   0.77471801506516      3.28818879963070      9.59319799512216
  O   5.13205574023241      2.19911936401862     -1.19003566208414
  N   2.96774648839114      0.54752215730579     -1.77026563241721
  N   5.24323664652973     -0.54311365829355     -1.36400868561649
  N   6.41467899593840     -1.21275652379301     -1.26867204819864
  N   5.26542208579574     -2.00159943443923     -3.00416670313336
  N   4.75272376602810     -2.83025952308438     -4.01494507372053
  N   7.69125530704085     -3.67451137097606     -3.61840288647441
  C   1.79631965098815      1.20125974485627     -1.88136152759230
  H   1.61230208292023      1.97155221901702     -1.13650993350865
  C   0.86583304130516      0.88562737447725     -2.87739128615353
  H   -0.06725972596590      1.44090393220633     -2.92549085820542
  C   1.14736120053380     -0.13973371010774     -3.78640871758958
  H   0.43437689166207     -0.40534986722869     -4.56372369849730
  C   2.36101745541560     -0.82461881742198     -3.68291536777585
  H   2.63053926840258     -1.63478327309943     -4.35331066084270
  C   3.24476014942627     -0.45170883746265     -2.66522939821087
  C   4.53790651142664     -1.02331862691284     -2.39349469755099
  C   6.43548842535069     -2.11143866732437     -2.25841286969000
  C   7.49736944923565     -3.11583660117745     -2.40376034755243
  C   8.26069521300556     -3.45579514442035     -1.27101957958985
  H   8.04954720605694     -2.98600831478658     -0.31429185388139
  C   9.26482455603665     -4.41551772603039     -1.41434540876823
  H   9.87361391547117     -4.70330445285712     -0.55963850400788
  C   9.46367032435517     -5.01066227708905     -2.66643289066952
  H   10.23123715722354     -5.76635763044230     -2.81659781548281
  C   8.64845702240768     -4.60941100715669     -3.73203747380164
  H   8.76773933260852     -5.03928256334607     -4.72629109642303
  C   5.54618175079835     -2.88608326661243     -5.05701684269909
  H   6.42591414561513     -2.24942334655292     -5.10151175072662
  C   5.25716980383352     -3.75039454014299     -6.17644184912740
  C   4.01822613730493     -4.43250909390466     -6.23971184780419
  H   3.31908248913859     -4.31267018354987     -5.41507779294846
  C   3.69214273173124     -5.22610578586447     -7.32635517714856
  H   2.72932171661413     -5.73354617528108     -7.36441582595369
  C   4.59817904838612     -5.38874965039529     -8.40209968422298
  C   4.27314869895814     -6.19492274708215     -9.54053943759786
  H   3.29933124807073     -6.68169623485631     -9.56986106251107
  C   5.16225954431832     -6.35586254944065    -10.57286128779732
  H   4.90111750406465     -6.97099265770996    -11.43310205422410
  C   6.45135248624368     -5.72816752233553    -10.54553312337108
  C   7.38172410883812     -5.88573540481434    -11.59390405211674
  H   7.11151913910105     -6.49847240239279    -12.45299069852518
  C   8.63527381333169     -5.26838955372862    -11.53940605468886
  H   9.34005913348183     -5.40177126687476    -12.35773161790261
  C   8.98828544587880     -4.48295206651385    -10.43771672125600
  H   9.96711093490194     -4.00651784964079    -10.39646718105108
  C   8.08789597166047     -4.29563012865492     -9.36883065969245
  C   8.41953424648687     -3.50846533358453     -8.21893269019137
  H   9.40748124356969     -3.05153410759742     -8.16931196093398
  C   7.53015396121411     -3.32782200631477     -7.19022822599163
  H   7.84187877719543     -2.74937910835005     -6.32468221976951
  C   6.22003833345710     -3.91598593867473     -7.22186364162916
  C   5.87470694010817     -4.73799524329373     -8.34634106315374
  C   6.80164827745425     -4.91883129704320     -9.41679567334979
  H   5.23694472093125      1.96072958023784     -2.13678267465836
