111
Coordinates from ORCA-job CEVXOT-oxo_1_1_tpss_d4_lanl2dz_631gpol_Fe2.opt
  Fe  4.32053784382877      0.85353706519071     -0.35205305481724
  S   2.58765999898991     -0.61137816087488      3.46076992941686
  N   3.44102079712472     -0.57295274032104      0.76563063350520
  N   5.63181074283531      1.04987467641916      1.14978103844145
  N   3.31614976887548      2.12256893146975      0.75769916925379
  N   2.09550179304916      2.69544032196085      0.72313367542023
  N   3.01024457466630      3.03749755603290      2.72022180412499
  N   3.32637846180979      3.52652752518495      3.99578545106983
  N   0.37763502906755      4.17634074649686      3.55772090190561
  C   3.06670520259799     -0.60921731808797      1.90672474086687
  C   6.85637007386331      0.49998617174922      1.20576793681109
  H   7.15545275510240     -0.08391104347569      0.34031063843410
  C   7.67991182478952      0.65299830609453      2.32631784524328
  H   8.66311785675804      0.18973077824029      2.32919478238160
  C   7.22387946844643      1.39642512861241      3.41936829698137
  H   7.84497856223531      1.52344454691476      4.30314537720507
  C   5.95565821127545      1.97970436428350      3.36438313474468
  H   5.55157792354515      2.57432219353839      4.17729933449572
  C   5.19099203378972      1.79048843761136      2.20983734016036
  C   3.88162630730950      2.33488637018877      1.94859016642990
  C   1.89789267117036      3.25888939181670      1.92114677851873
  C   0.71360164157888      4.05896910986110      2.25449596496259
  C   -0.01708034692195      4.66023614143662      1.21320769185699
  H   0.31006295370800      4.54479106922963      0.18333965425202
  C   -1.14567971604909      5.41212715910532      1.54687546516118
  H   -1.73466396566951      5.89235123794016      0.76800007631648
  C   -1.49665325435984      5.54923451405634      2.89568154047229
  H   -2.36550660624333      6.13031893776509      3.19626195873321
  C   -0.70056414108775      4.91692812782793      3.85930829677422
  H   -0.93628586959572      4.99134756263141      4.92066897000360
  C   2.48016561615391      3.10167547466446      4.90279288192447
  H   1.71685878793382      2.37707899409321      4.63232350862022
  C   2.58185417342552      3.54892088228745      6.27252394270671
  C   3.67774416657679      4.35572930509917      6.66249720068282
  H   4.40476564374922      4.63899417488581      5.90467745934549
  C   3.83103256559222      4.77380958721898      7.97288096859367
  H   4.68596681168903      5.38553147407616      8.25747170238862
  C   2.88296442391577      4.41574636693224      8.96085506999771
  C   3.02787226140953      4.83382696480465     10.32319287772001
  H   3.89694286275057      5.43306681416475     10.59146961257028
  C   2.09823950928154      4.49337362514469     11.27232803471342
  H   2.22128499177005      4.81770437763586     12.30500172862690
  C   0.94576500818181      3.71030610869911     10.93291066846882
  C   -0.02430104666849      3.35442133404261     11.89278771502592
  H   0.10730681982987      3.68086085848753     12.92366000802506
  C   -1.14177751847043      2.59389359801304     11.53480588084809
  H   -1.88017106766135      2.32871077115341     12.28903820472452
  C   -1.31584072484624      2.17325733589264     10.21259901050767
  H   -2.18851823279234      1.58248092049606      9.93651067601828
  C   -0.36984575592200      2.50402578695796      9.22073551057632
  C   -0.51898227545481      2.09754029831030      7.85481913793202
  H   -1.39880479920318      1.51745432974713      7.57823223887679
  C   0.41145169941473      2.42314987488988      6.90124227256909
  H   0.24124255629101      2.10821929176865      5.87529738845430
  C   1.58417780511943      3.18457376830631      7.23034821900297
  C   1.74737460459530      3.62377439498820      8.58751465715116
  C   0.77784758739079      3.27961980404434      9.57693017353034
  O   5.04333560899855      2.04526432886510     -1.24005386196442
  N   2.92111074125533      0.51218112528271     -1.75298527283184
  N   5.22596844182634     -0.58409642555663     -1.33126923109895
  N   6.39411828624861     -1.24969728445790     -1.23794780387422
  N   5.24867754301031     -2.02117556333707     -2.98220934004906
  N   4.74032677240500     -2.84348250835490     -3.99991953257577
  N   7.67120673384444     -3.69134189728027     -3.61005107808788
  C   1.74760983853041      1.15386903633494     -1.86909938377170
  H   1.55342034655707      1.92605987022688     -1.12890733367929
  C   0.82694257024362      0.82778746572837     -2.87255407931095
  H   -0.11182300300455      1.37252689702816     -2.92853338286333
  C   1.13013977193428     -0.19220458597979     -3.77846316060148
  H   0.42829146804552     -0.46554870208321     -4.56322575918360
  C   2.35186670758403     -0.86283122040239     -3.66563387868478
  H   2.63630132874309     -1.66763181967014     -4.33613562935989
  C   3.22318967116043     -0.48076097321086     -2.64144176209820
  C   4.52044501791253     -1.04828173041778     -2.36409907705541
  C   6.41796387392776     -2.13872663502130     -2.23695154871710
  C   7.48042992709137     -3.14086874554463     -2.39125607542779
  C   8.24768890507301     -3.48737255127018     -1.26319380356191
  H   8.03899590227925     -3.02439591464344     -0.30258738444479
  C   9.25275438882166     -4.44460249550167     -1.41610255928039
  H   9.86463497224989     -4.73720789617209     -0.56523149847568
  C   9.44863827949549     -5.03106249238038     -2.67276782859052
  H   10.21694286851582     -5.78448254622738     -2.83040410941613
  C   8.62942370402373     -4.62392851687771     -3.73305257995411
  H   8.74616437773141     -5.04677796748970     -4.73060930337560
  C   5.53431504585091     -2.88639464138187     -5.04239361718253
  H   6.40884715564902     -2.24237144493167     -5.08322542916146
  C   5.24933537621655     -3.74540888578087     -6.16691794826318
  C   4.01525346276003     -4.43621843013419     -6.23119753421572
  H   3.31675306903898     -4.32544066922355     -5.40474605432581
  C   3.69295866942201     -5.22746750257828     -7.32061086434494
  H   2.73370540945264     -5.74160434600111     -7.35928709809570
  C   4.59855170005493     -5.37936525949010     -8.39827162547805
  C   4.27771253950954     -6.18377186226738     -9.53912053556171
  H   3.30736959656733     -6.67743647164385     -9.56880126647176
  C   5.16650784368404     -6.33456962476656    -10.57324306990433
  H   4.90865871923349     -6.94849101219228    -11.43535281088430
  C   6.45095393136123     -5.69748108016369    -10.54548527998670
  C   7.38094721805111     -5.84459476699168    -11.59570744112175
  H   7.11407778435917     -6.45644263802611    -12.45648449341145
  C   8.62985932770155     -5.21796799680051    -11.54094035588150
  H   9.33443281537474     -5.34322241673767    -12.36074166636543
  C   8.97851123562601     -4.43347788104679    -10.43717297410926
  H   9.95368649267176     -3.94962592970856    -10.39585380898131
  C   8.07835757367387     -4.25658081752885     -9.36630402966919
  C   8.40565457853130     -3.47046288805044     -8.21443065062545
  H   9.38974000004353     -3.00527695592866     -8.16523998230444
  C   7.51669411644874     -3.30041050145419     -7.18356920554660
  H   7.82487173587917     -2.72117247064581     -6.31733016103990
  C   6.21137899149006     -3.89900550759951     -7.21491794781603
  C   5.87029099846598     -4.71936941267257     -8.34194873373952
  C   6.79686049783515     -4.88943246354371     -9.41448144590500
