110
Coordinates from ORCA-job CEVXOT_1_5_tpss_d4_lanl2dz_631gpol_Fe2.opt
  Fe  3.50525204535095     -0.27934558215927      0.26442744869170
  S   2.29199925005547     -0.40926614304954      4.44094580076684
  N   2.62746897542138     -1.16755131193868      1.73983191813874
  N   5.17846379234063      0.47990151583164      1.43384393405786
  N   2.85491696266100      1.66702014261652      0.78368352304996
  N   1.63687120712563      2.27925017765272      0.74623596190692
  N   2.71217180714163      2.92333970156338      2.58161870312716
  N   3.11209063227720      3.59291838013262      3.75116581377285
  N   0.20910552286982      4.31162039289945      3.40093601147647
  C   2.47409828749747     -0.85198546144262      2.89467593794696
  C   6.37024832290633     -0.11107058548921      1.63325039687750
  H   6.59486793166948     -0.94355960117740      0.96883383207026
  C   7.25349659061601      0.31144212844773      2.63339799257007
  H   8.20433226102077     -0.19834612850762      2.76716901878300
  C   6.88347586386002      1.38502697719378      3.45056177134521
  H   7.54663551285361      1.73397327278225      4.23933837003533
  C   5.64867582951209      2.01128678614368      3.25113662460599
  H   5.32070104230351      2.84924343035729      3.85835817889958
  C   4.82185684153108      1.52890461467817      2.22914251376037
  C   3.50917816990867      2.06461375567119      1.88536457790060
  C   1.54520914290149      3.04333961566845      1.83714056144199
  C   0.39874539743550      3.91442180483893      2.12427878404518
  C   -0.45243770664765      4.28552559076125      1.06667366006239
  H   -0.24265273537221      3.94161267169117      0.05742663822888
  C   -1.54645216826137      5.10359409775878      1.35540591103652
  H   -2.22657293409735      5.41055394849099      0.56318344328208
  C   -1.74682051177911      5.53018391069005      2.67434868258537
  H   -2.58484698655157      6.17091853946796      2.93931208376114
  C   -0.84001113380163      5.10916730625674      3.65542636893772
  H   -0.95843616786431      5.41176658580522      4.69574640706209
  C   2.33560159159357      3.29169609812127      4.76291322444066
  H   1.56310570617419      2.53543766539463      4.64430551874701
  C   2.51345578604972      3.92436375125257      6.04898042876174
  C   3.36487506336645      5.04944270163353      6.15778285715062
  H   3.85934999636256      5.40890209747542      5.25811378981013
  C   3.54738492630522      5.69652519248168      7.36829223293524
  H   4.19824038553308      6.56753497943069      7.43213791013335
  C   2.88232770638148      5.24876174395895      8.53454861620574
  C   3.05142360166884      5.91066158454737      9.79388225144362
  H   3.71071234197052      6.77652337953608      9.83943602141148
  C   2.40309682612814      5.47078305334932     10.91957850079886
  H   2.54175989099520      5.98376929481901     11.87064224229472
  C   1.53384489150871      4.33092695768364     10.87633541878188
  C   0.86072916874617      3.86084050055366     12.02312165006461
  H   1.00364097329510      4.38007320941076     12.97006873004189
  C   0.02127670403343      2.74465075357240     11.95456672856279
  H   -0.48898037975462      2.39530278735086     12.85012482425785
  C   -0.16453182558355      2.07427424000047     10.74152605989809
  H   -0.81707269495141      1.20336421143539     10.69153958919491
  C   0.48680007924366      2.51090964453751      9.56968222415590
  C   0.32227818137775      1.84741906958662      8.31063704319232
  H   -0.32418769826998      0.97180351914159      8.26372961331858
  C   0.96120926355345      2.28399718105357      7.17863661606258
  H   0.81190016099152      1.73344353350828      6.25348824219542
  C   1.82433481724525      3.43185327420573      7.20180257266487
  C   2.01594362871374      4.10900194644734      8.45325005782965
  C   1.34706758117365      3.65190621477834      9.62880677986510
  N   2.32052352637706     -0.37929193122463     -1.56941093632084
  N   4.65071603151828     -1.49013856113121     -1.01773533105103
  N   5.83232522675315     -2.15961431602104     -0.91750015485586
  N   4.91881696258619     -2.59065681242996     -2.90112323667559
  N   4.56547422036329     -3.22164593130719     -4.10480328229847
  N   7.46262960440151     -4.08261500772786     -3.53597460772826
  C   1.12639519221214      0.21642623167217     -1.73884739019136
  H   0.81261194312548      0.87422195705582     -0.93000580730665
  C   0.35280266482928      0.01808472152887     -2.88961137871308
  H   -0.60960671417932      0.51423297152139     -2.98575725966478
  C   0.84277197062979     -0.81753129234567     -3.89860296142892
  H   0.26464547344776     -0.98907368885593     -4.80421886075190
  C   2.08929908215933     -1.43454759909651     -3.73919322771299
  H   2.50538603682738     -2.09469066392502     -4.49366909064516
  C   2.79640471006863     -1.19334487629704     -2.55561459003447
  C   4.08903240654023     -1.76163924534028     -2.20240000463008
  C   5.99818479112982     -2.83919482915411     -2.05406423045697
  C   7.10132765461605     -3.78655225526069     -2.26830637436357
  C   7.72998009044808     -4.34628006163528     -1.13999864873638
  H   7.38842165865393     -4.08020137403058     -0.14335767793698
  C   8.77375848117044     -5.25095760072718     -1.34490635503733
  H   9.28085191786750     -5.70396031251518     -0.49534132157155
  C   9.14437804238034     -5.57651108400384     -2.65582098445345
  H   9.94725265948850     -6.28210445132508     -2.85681071010133
  C   8.45596847807349     -4.96899321744821     -3.71310006143165
  H   8.71166323620917     -5.18470888227401     -4.75030344529888
  C   5.47329665269559     -3.06027920547025     -5.03580112933136
  H   6.32283208393437     -2.40641605870012     -4.85649763564145
  C   5.34776738454675     -3.70334893575626     -6.32330469979453
  C   4.14896667116308     -4.37688995656845     -6.65927696428248
  H   3.35605445971641     -4.42282656980386     -5.91603173835487
  C   3.97724205148100     -4.95635641974044     -7.90508532183154
  H   3.04309079911122     -5.45915056844128     -8.15116546825274
  C   5.00583205262854     -4.90285815599345     -8.87620308171814
  C   4.84197933273880     -5.48443496458419    -10.17499356690197
  H   3.89509858158928     -5.96829441255736    -10.41049114930767
  C   5.84920360368451     -5.43826070472230    -11.10503790198895
  H   5.71020750615913     -5.88369300116388    -12.08934583366406
  C   7.10458338972884     -4.81192590899971    -10.80770183695308
  C   8.15444869314347     -4.75884866777553    -11.74807560631577
  H   8.00591476316129     -5.20238462133471    -12.73178329926296
  C   9.37164207278524     -4.14813243941977    -11.43055888263497
  H   10.17036481564347     -4.11705490026726    -12.16901507152638
  C   9.56833935513336     -3.57965565875021    -10.16825929729687
  H   10.51929472538103     -3.10841904947156     -9.92250120291644
  C   8.54483765039961     -3.60683050580214     -9.19867891204819
  C   8.71443265479577     -3.04582930461118     -7.89141778757753
  H   9.67426265613948     -2.59554442160274     -7.63987040038557
  C   7.70642190631386     -3.07138124603413     -6.96142973631187
  H   7.89537381534925     -2.66327068442718     -5.97216447580097
  C   6.42934343553633     -3.65834963209017     -7.25822781434742
  C   6.24446108354705     -4.25898278734065     -8.54841479760024
  C   7.29447473705784     -4.22486222517521     -9.51497907300049
