116
Coordinates from ORCA-job CEVXOT-CH3OH_1_1_tpss_d4_lanl2dz_631gpol_Fe2.opt
  Fe  4.51090150861411      1.11694323194551     -0.29072972441979
  S   2.45784852131480     -0.27863153467010      3.47205202056135
  N   3.56364275954494     -0.09032050109444      0.86967114782410
  N   5.78631797883445      1.33409984850091      1.21326931595545
  N   3.60365938902813      2.58082738009097      0.64394794519988
  N   2.42445469245644      3.25399825419371      0.52871447157426
  N   3.14883225206501      3.41609632345126      2.62440738871992
  N   3.33331330624060      3.76172379930441      3.97659132052320
  N   0.55992405235035      4.68188970302841      3.29884470490339
  C   3.08933005372406     -0.16443587650437      1.96683207718463
  C   6.95665142421840      0.68670795709458      1.39753774776652
  H   7.29803184204233      0.08736641237559      0.55804796189897
  C   7.66456998781598      0.74596201044285      2.60136310394680
  H   8.60048175204431      0.20022019895909      2.69272785839454
  C   7.15121869925152      1.48924521434875      3.67005650078245
  H   7.67766199394668      1.53759450914981      4.62045104363300
  C   5.93975844449559      2.16382030283100      3.50103463470908
  H   5.48542104863158      2.75383560828721      4.29088593666923
  C   5.29457088733932      2.06777387217805      2.26482687464819
  C   4.05337266326247      2.70493621606249      1.90165064136884
  C   2.14137869279062      3.75713078999125      1.73424307131335
  C   0.96524929549096      4.58781360773370      2.01404863222070
  C   0.30913500058278      5.23022178840445      0.94758952993327
  H   0.68708135692360      5.12392549220410     -0.06588170616453
  C   -0.81786836511844      6.00267524097827      1.23565667717012
  H   -1.35137767202303      6.51431986562545      0.43695329355400
  C   -1.24228375698774      6.11561624750613      2.56558331018660
  H   -2.11349049327097      6.71014310875353      2.83125921510926
  C   -0.51784605434088      5.43909744381730      3.55573755667202
  H   -0.81429700336167      5.49388723893966      4.60308953043120
  C   2.41079455669763      3.21053409007019      4.72779873426851
  H   1.69535149551793      2.52139433262339      4.28344608468105
  C   2.34967072795021      3.47719400071759      6.14539698182432
  C   3.09774852658229      4.55101957377469      6.68383899511364
  H   3.70201653882169      5.14780849961428      6.00416511154776
  C   3.04342400114544      4.85708195421913      8.03323444780923
  H   3.61555306656022      5.69488264025301      8.42965993367438
  C   2.23479702570430      4.09936987154778      8.91367930495796
  C   2.15816746602231      4.40615918953422     10.31108540124566
  H   2.74088546309222      5.24492907401694     10.68984169794027
  C   1.37402758931231      3.66560091930873     11.15838859763056
  H   1.32619762700072      3.90980651629671     12.21905058623450
  C   0.60395374902259      2.55612984009915     10.67573179122261
  C   -0.20482826485828      1.77942481638006     11.53113776594944
  H   -0.24824600547499      2.03071546779690     12.59025666916392
  C   -0.94246163797065      0.70004255900015     11.03511541300346
  H   -1.56029464685262      0.11088306911554     11.71017390470272
  C   -0.88899674619871      0.37258755727114      9.67661021599009
  H   -1.46204750908896     -0.47102831100439      9.29360510020874
  C   -0.09558240548079      1.12315304086499      8.78486368983502
  C   -0.01207483133847      0.81312036402679      7.38849523608358
  H   -0.57604549827245     -0.03819984492592      7.00904914387060
  C   0.76362220850050      1.55179806978259      6.53227116041286
  H   0.80994812965260      1.25737742589823      5.48688558649343
  C   1.52528509942966      2.67713929639462      6.99774730207319
  C   1.47219874854234      3.00118697423919      8.39528570796547
  C   0.66198884214610      2.22972899101242      9.28205935828368
  O   5.40533966316871      2.45155573635037     -1.54077336650806
  N   3.13691023913766      0.77095658450999     -1.68086871031776
  N   5.40695482146765     -0.33434882850777     -1.20546963345219
  N   6.59319471356457     -0.99509805811761     -1.11733040683751
  N   5.39002603697095     -1.89031551156667     -2.76175595751789
  N   4.81158756125433     -2.81182832607953     -3.64873572263461
  N   7.81063413365767     -3.56088111094943     -3.38217855433889
  C   1.96003945044065      1.41028599990723     -1.83750942873305
  H   1.78667911019356      2.24733583790250     -1.16625695134579
  C   1.01121774653443      1.01380862765923     -2.78604033192142
  H   0.07908662937743      1.56754130654353     -2.86590521248640
  C   1.27250543691733     -0.09000823061941     -3.60387619816319
  H   0.54664462278173     -0.42238379851009     -4.34263906544190
  C   2.48493994278408     -0.76802305266350     -3.45275479015996
  H   2.73726912637148     -1.63884590256949     -4.04940091871652
  C   3.38749247770116     -0.31049754359061     -2.48742948762488
  C   4.67822706906091     -0.87557654626058     -2.18824241218847
  C   6.58453821436688     -1.95112368114555     -2.05315679123410
  C   7.64480013217466     -2.95683339073555     -2.18422675622592
  C   8.43803817082897     -3.25164208281324     -1.05892647080763
  H   8.24656722914476     -2.74738826976942     -0.11563697361017
  C   9.44229338674372     -4.21262133162175     -1.18978640571225
  H   10.07258087093617     -4.46648406709821     -0.33983019818480
  C   9.61180178170291     -4.85532600143281     -2.42267786439450
  H   10.37716607089840     -5.61522013024985     -2.56278791135350
  C   8.76803900243664     -4.49766464252292     -3.48137154050071
  H   8.86290704979243     -4.96950791547760     -4.45923126906616
  C   5.50121542111120     -2.97770714624964     -4.74843751797400
  H   6.38808264570534     -2.37774637210484     -4.93400545880839
  C   5.07135451413582     -3.93520293635027     -5.74302379968042
  C   3.82274275634301     -4.58443678120696     -5.58650012886254
  H   3.23906758409428     -4.37240243566299     -4.69356830296824
  C   3.34501557970222     -5.46170891381138     -6.54450960610389
  H   2.37703029414812     -5.94302703985942     -6.41262991590649
  C   4.10056640115452     -5.74381710563096     -7.70738475027257
  C   3.61593284296418     -6.63751215778378     -8.71621181538994
  H   2.63896735644616     -7.09766958160874     -8.57484731222386
  C   4.35863484214891     -6.91253643344047     -9.83601197051727
  H   3.97754766846194     -7.59314918339098    -10.59640996445507
  C   5.64958651199250     -6.31960319501420    -10.03246515926505
  C   6.43103984106934     -6.59390437689090    -11.17399507840901
  H   6.04107007031594     -7.27283731855521    -11.93133189505290
  C   7.68997114105004     -6.00796510034276    -11.33897166003896
  H   8.27914530462257     -6.23189950740951    -12.22611651797883
  C   8.19680165080963     -5.13778245354663    -10.36874182565595
  H   9.17981657722517     -4.68643494013678    -10.49861969803795
  C   7.44847558868739     -4.83282737900058     -9.21320931723786
  C   7.93972288621767     -3.95526179172339     -8.19253674366782
  H   8.93167019278504     -3.52099374914046     -8.31431520075948
  C   7.19678301888566     -3.66185471160593     -7.07719611443129
  H   7.62497115320244     -3.01408880758532     -6.31631316035564
  C   5.88648199458520     -4.21804932946216     -6.88346636198895
  C   5.38355418336166     -5.12563722104758     -7.87539694599671
  C   6.15808571425680     -5.42412204257842     -9.03666901564847
  C   6.84856999916451      2.61724180410089     -1.46910450051232
  H   7.16700461314408      3.30038188500345     -2.26479638732210
  H   7.15125649388417      2.99358875174195     -0.48544576171981
  H   7.26635883957661      1.62221972940182     -1.63318686728962
  H   4.97884805426564      3.30622643846331     -1.32371792044718
