110
Coordinates from ORCA-job CEVXOT_1_1_tpss_d4_lanl2dz_631gpol_Fe2.opt
  Fe  4.21335584984547      0.41396196062389     -0.09173109837336
  S   2.01974992646559     -0.53854217355361      3.57890730369504
  N   3.27036285279215     -0.85381552758025      1.05748544954450
  N   5.55011892465418      0.68882805789511      1.34281219858253
  N   3.35347033849709      1.91553961178458      0.82074296017257
  N   2.16453330490998      2.57195970228000      0.73590204734917
  N   3.05839217584462      2.94794615974834      2.73731544042738
  N   3.37461763550218      3.47882508416869      3.99699001079095
  N   0.50820332687454      4.31036421453644      3.45982221098310
  C   2.73778824233405     -0.71524848370176      2.12840260937915
  C   6.71581813160038      0.02541120231993      1.49970704223576
  H   6.99491523017538     -0.63414773157052      0.68263618240629
  C   7.50670352568515      0.16659869102776      2.64355479443737
  H   8.43644066250843     -0.39193525597439      2.71662945152635
  C   7.08664730488480      1.01351396294466      3.67503805051115
  H   7.68159929400375      1.13030278018719      4.57797365362409
  C   5.88352785337063      1.70880984603403      3.53035763664364
  H   5.50454475826215      2.38142222651361      4.29330617675879
  C   5.14992280875854      1.52597722756586      2.35529252382159
  C   3.89902197573518      2.15624115675093      2.02238739952685
  C   1.97941716074673      3.20053250008034      1.89894796173510
  C   0.83314673251467      4.07624703334814      2.16995638908055
  C   0.12010769792246      4.61998817928764      1.08530145278304
  H   0.43580838989730      4.40721014646473      0.06742113268693
  C   -0.97818770658740      5.43732565244373      1.36031253641455
  H   -1.55365730509329      5.87472728684742      0.54680474163996
  C   -1.31818107201596      5.69365303146611      2.69463927319324
  H   -2.16442455302335      6.32752712599512      2.94965118195657
  C   -0.54117428815799      5.11058926767454      3.70381751536209
  H   -0.76951972377650      5.27716733137263      4.75639530003789
  C   2.48388516605165      3.14525858809533      4.89948625202601
  H   1.69019455530204      2.44955786842504      4.64072239826935
  C   2.57511317911432      3.65177272905534      6.24893486357498
  C   3.66146403164779      4.48643260090150      6.60583569616207
  H   4.39007260647249      4.73912980395298      5.83876435573036
  C   3.80013888047997      4.97368212615519      7.89368687996684
  H   4.64577719488186      5.60964547740230      8.15191321211697
  C   2.84721945882756      4.65863661023395      8.89157892998308
  C   2.97542154973845      5.15187929537576     10.23022745197610
  H   3.83430870669900      5.77661960123070     10.47190739209247
  C   2.04314527120883      4.85005717358201     11.18980793895770
  H   2.15345196949385      5.23140610701400     12.20430274410467
  C   0.90529022786762      4.03220862143981     10.88525485746923
  C   -0.06613909812897      3.71335501270479     11.85670516724760
  H   0.05253699076803      4.09768008844911     12.86905097219064
  C   -1.16829109246216      2.91593093406265     11.53337023694628
  H   -1.90787519056528      2.67971722754641     12.29602672559847
  C   -1.32505929984289      2.42042540042923     10.23510443638743
  H   -2.18522410508623      1.79990375823203      9.98632976814821
  C   -0.37755025121619      2.71298153361897      9.23277171410116
  C   -0.50779145686910      2.22694440116955      7.89124542392096
  H   -1.37226623550800      1.61233522328420      7.64241723925720
  C   0.42312111222988      2.51724723189755      6.92695417665758
  H   0.27061468561948      2.13143052367269      5.92277723969740
  C   1.57686962899716      3.32140994241567      7.21897104318282
  C   1.72477008181293      3.83313704653896      8.55259703681159
  C   0.75411196364196      3.52664394938683      9.55335202112316
  N   2.88239093905441      0.14685194588752     -1.53530867750474
  N   5.20591189563600     -0.87881089616387     -1.17094303864268
  N   6.40842729842300     -1.51559736210045     -1.11961679901949
  N   5.30244968945961     -2.20597061546701     -2.92386873523539
  N   4.82180585454129     -2.99614612285941     -3.98000165290251
  N   7.79909767112974     -3.70525675957366     -3.66074482435662
  C   1.65176239842137      0.69986848971364     -1.59692878672354
  H   1.42413432938717      1.42675015047392     -0.82184828855050
  C   0.73170526380940      0.36683589068505     -2.59570995123880
  H   -0.24480440029257      0.84433555229411     -2.59511168785332
  C   1.07807917504301     -0.57464243995237     -3.57065146430236
  H   0.37618820933606     -0.85134930573080     -4.35406413919672
  C   2.34394775558854     -1.16486073373467     -3.51845995643791
  H   2.66310835226818     -1.91557355328786     -4.23469116588227
  C   3.21173136890765     -0.78527265386013     -2.49036391779779
  C   4.53195986146709     -1.30723889237434     -2.24874475449229
  C   6.47146858186334     -2.32829087480131     -2.17572791013308
  C   7.57729562908278     -3.26800399518899     -2.40171483860968
  C   8.35421753923400     -3.67198586825690     -1.29979566190677
  H   8.11976246928784     -3.30009981377530     -0.30614526913759
  C   9.40335684272137     -4.56607245345976     -1.52241086440571
  H   10.02393199105204     -4.90041968037638     -0.69347573987051
  C   9.63240334960191     -5.03589612112368     -2.82177771677194
  H   10.43526786948262     -5.73791221573218     -3.03482913804632
  C   8.80023151903493     -4.57967345137664     -3.85154333885899
  H   8.94152423294518     -4.91382267680153     -4.87916382795608
  C   5.59533932740509     -2.94651844344634     -5.03661122504258
  H   6.44060367123587     -2.26381667267780     -5.05844352475553
  C   5.32220265147965     -3.76207264938594     -6.19667127740234
  C   4.14065109518088     -4.54098405074333     -6.24148220448653
  H   3.47886491379883     -4.52615596743493     -5.37838390605415
  C   3.82481098349870     -5.30139475501627     -7.35415744510906
  H   2.90656398411377     -5.88656164449022     -7.37473210905662
  C   4.68431634735072     -5.33050900109063     -8.47859640670281
  C   4.36874499331028     -6.10339024878064     -9.64241448475688
  H   3.43954136859627     -6.67143331736822     -9.65076108383485
  C   5.21179686404420     -6.13303523923612    -10.72419583468725
  H   4.95869438271379     -6.72420503161777    -11.60344498573848
  C   6.44137597728324     -5.39521671076375    -10.72544791275763
  C   7.32291116022388     -5.41517576258479    -11.82629377772785
  H   7.06020821520717     -6.00535378635263    -12.70333270887758
  C   8.51888193610847     -4.69106563063885    -11.80059119717205
  H   9.18659685649805     -4.71832763207739    -12.65943708455980
  C   8.86209754594733     -3.93432459061810    -10.67592932551464
  H   9.79666949244537     -3.37478544214395    -10.65759385634959
  C   8.00939265040703     -3.88401522623647     -9.55399032267329
  C   8.33367843732645     -3.12977059459823     -8.38009435529993
  H   9.27843500905273     -2.58745899527801     -8.35560921832752
  C   7.49044558449918     -3.08370636764579     -7.29902722615471
  H   7.79658785712370     -2.51964374712466     -6.42194778805129
  C   6.23768733659900     -3.78637852132207     -7.29612803391355
  C   5.90259965959323     -4.57479965329874     -8.44789901999703
  C   6.78156602616336     -4.61695500433874     -9.57201724179584
