41
Coordinates from ORCA-job CAZOCO-oxo_3_5_tpss_d4_lanl2dz_631gpol_Co3.opt
  Co  3.97090448791102     10.02405018991343      3.95382089015793
  O   5.07356562034670      9.61682945008530      2.80486489622796
  N   5.06950922046654      8.83208676867840      5.50444191238320
  N   3.14177550312592      8.10678385379136      3.63889292461900
  N   2.39314229857961     10.40889755283979      2.30770117799786
  N   2.39502254810271     10.64628269783389      5.13383294273420
  N   5.00781148135576     11.69380309151471      4.34991387628434
  C   4.52678069522803      7.44400625342661      5.55136826613006
  C   4.09604592441710      7.05962777775106      4.13709586860035
  C   2.80091051855217      7.97159429535651      2.18376547377307
  C   1.84699743479072      9.10884355941189      1.81629827951663
  C   1.42932055178853     11.33298284183622      2.96764828335254
  C   1.10021429084346     10.79129134477996      4.35685824433914
  C   5.08290022220275     12.26754667405729      5.57852611058274
  C   5.83061356936487     13.42721433948059      5.80625524591877
  C   6.53296331069607     14.02383592991118      4.72975332422514
  C   6.46514070061858     13.42310414482003      3.46466624065606
  C   5.72331464884424     12.25405162416640      3.30955218911574
  H   4.54792102539132     11.78843173674152      6.39537516439592
  H   5.86209591476384     13.85594946860724      6.80622015738582
  H   7.12851457902220     14.92113004780471      4.89222751863690
  H   7.00340033611670     13.82862264869209      2.61037508369072
  H   5.69314768957769     11.72410635172516      2.36117427066702
  H   3.68286878442038      7.42645470820943      6.25107312537304
  H   5.28881848691527      6.74196845189464      5.91911887451550
  H   3.60314560274033      6.07780503649284      4.13136355435876
  H   4.94682365758542      7.03126206187985      3.44597605259382
  H   3.73883332687975      8.02557439195462      1.61959651299380
  H   2.33049310895693      6.99607924541437      1.99873344011784
  H   0.86082931938344      8.95520118366741      2.26937862648742
  H   1.71644693984494      9.15630318072952      0.72641537463860
  H   0.51335141268811     11.41406534294618      2.36067621627125
  H   1.88958050587805     12.32670414597897      3.01910922227412
  H   0.62267492536600      9.80669490369908      4.30987317129523
  H   0.41924229882459     11.46586433603958      4.88984070898382
  H   6.02986537753030      8.84128737703045      5.13615265418641
  H   5.10327617705433      9.25612189596967      6.43951550621047
  H   2.27675873047262      8.04626982319267      4.19548286924639
  H   2.94232994287119     10.87926352954991      1.57789969863963
  H   2.63179082885336     11.57252095821345      5.51346483870932
  H   2.22905800162816     10.05488678391112      5.95990121171310
