42
Coordinates from ORCA-job CAZOCO-OH_3_2_tpss_d4_lanl2dz_631gpol_Co3.opt
  Co  3.93907006051152      9.81475923839768      3.99201005356803
  O   5.15814504454137      9.36946075047951      2.78646913141507
  N   4.91814985743594      8.87856467614312      5.49359643068331
  N   3.10698176570348      8.04112059080950      3.65816065062209
  N   2.72893802827677     10.42439525841188      2.51172821826528
  N   2.43009491727381     10.46064184875489      5.17971859660690
  N   4.88689837484273     11.55934252110493      4.27098354900198
  C   4.41338715562305      7.44906315246239      5.61139547251089
  C   4.02952313015544      6.98703337753141      4.21174190758251
  C   2.81396187181052      7.96187481891156      2.18308652477059
  C   2.04288577190863      9.23003373215150      1.84598464847369
  C   1.76130110716241     11.44195836986650      3.05815040882650
  C   1.22111884640061     10.87274544408544      4.36077644313849
  C   5.12643649320647     12.07673753559997      5.50873847337103
  C   5.82489490379513     13.27191272077851      5.69859668179164
  C   6.30207372746264     13.97169833477984      4.58095559388227
  C   6.06377608858178     13.43922855833309      3.30552240736003
  C   5.35726155276955     12.23963993817405      3.18492325360761
  H   4.75541805085854     11.52153846562776      6.36776556147061
  H   5.98951166355746     13.63457948426750      6.71116124555758
  H   6.85246134871225     14.90314963854651      4.70106883086277
  H   6.42275090351924     13.93349399053711      2.40493806745148
  H   5.17672604114810     11.80382305256249      2.20503631031683
  H   3.54984272181749      7.45758989353480      6.28728154040131
  H   5.19022398848685      6.81503499696728      6.05591700455040
  H   3.52161344825015      6.01370189729438      4.22985908108909
  H   4.89654097052503      6.92571132289709      3.54480196085351
  H   3.77058990994957      7.90002317168915      1.65836576199265
  H   2.22336166222053      7.06159850265178      1.96610611433800
  H   1.01657391645071      9.18431112542921      2.22546906138764
  H   1.99679260457489      9.40777329156025      0.76509587318733
  H   0.96278623567844     11.62789536965023      2.32667881944224
  H   2.31136491771302     12.37519089228751      3.22064796267008
  H   0.60322443705994      9.98287182960869      4.20237895236877
  H   0.62183942451039     11.60513036246066      4.91465922174430
  H   5.91445932919776      8.86985368947438      5.23585480342193
  H   4.88179138121193      9.33953853444034      6.41191193899831
  H   2.21393658916859      7.99419502514789      4.17054806103907
  H   3.34191747977215     10.86733051644702      1.81623726950447
  H   2.78238943249431     11.29222322359080      5.67211834373026
  H   2.13899705959458      9.80638544611566      5.91990357096934
  H   6.06174778606596      9.72904541043502      2.97272619717387
