41
Coordinates from ORCA-job CAZOCO-oxo_3_1_tpss_d4_lanl2dz_631gpol_Co3.opt
  Co  3.91375705805730      9.85294022551568      3.99000774370106
  O   5.13171632170890      9.52288774329753      2.91493210730006
  N   4.94738628315946      8.93442822894169      5.45688932573860
  N   3.13819071823704      8.05895899390524      3.63586369204247
  N   2.68160935183246     10.47280187923860      2.52846305508586
  N   2.35833136610202     10.42184992603955      5.21929625107347
  N   4.82271949264930     11.63026837489247      4.27911049200513
  C   4.48761331401961      7.49335493128027      5.57179223205839
  C   4.10242043929084      7.02909919565431      4.17305614732674
  C   2.85597137809687      8.01361153908639      2.15658989089594
  C   2.04313088261345      9.26387360842325      1.84094308118401
  C   1.68225309552653     11.44038283128327      3.11078952230482
  C   1.14926947909215     10.82259389669000      4.39412224739460
  C   5.01211890597838     12.18834054771007      5.50115118287128
  C   5.78997326710960     13.34210395179096      5.68179363003411
  C   6.40642625051181     13.93692585568604      4.57104909147127
  C   6.22535533867527     13.34842066243416      3.31241976286397
  C   5.43308786662837     12.19815095013571      3.19786612939323
  H   4.53427507211068     11.71947041157771      6.35904124528376
  H   5.89615941237371     13.75456557361370      6.68329287856912
  H   7.02159633801298     14.82744849292337      4.68761480490232
  H   6.69887061809657     13.75121106897009      2.41914120821336
  H   5.29820781859870     11.71414991076503      2.23475515306676
  H   3.63363530932556      7.46956095100660      6.25884859691384
  H   5.29174978317130      6.88155946056887      6.00002632316443
  H   3.62393443962110      6.04096648912536      4.18757807444389
  H   4.96480151617050      7.00109078642329      3.49676455425821
  H   3.82192190279477      8.00302308185313      1.63971077743832
  H   2.30186761090851      7.09918269168764      1.90520137055133
  H   1.01871870715780      9.17417411855255      2.21774341127648
  H   1.99380826567726      9.45521982038121      0.76258487792884
  H   0.88284638506684     11.62654171219718      2.37989163391714
  H   2.20713872515305     12.38273617109110      3.30137265706093
  H   0.55335207476840      9.92262513594096      4.20902867296574
  H   0.52252578437332     11.52798205893667      4.95244194774316
  H   5.92862232298428      8.97257614857894      5.14492892583412
  H   4.92227649542870      9.39770376568397      6.37472422975439
  H   2.24727669177800      7.97579155527767      4.14760813547051
  H   3.26835366235617     10.96439728809348      1.84210202259275
  H   2.66395746637511     11.24974732138175      5.74595719225804
  H   2.07097278840722      9.74268264336423      5.93770572164735
