132
Coordinates from ORCA-job BAJKON-oxo_2_1_tpss_d4_lanl2dz_631gpol_Fe2.opt
  Fe  -0.31863210006973     -0.04900229181437      0.09058030344186
  P   0.49464437001930     -1.54741546550433      1.64762804282811
  P   -0.24851001533442      1.49587650277829      1.83336882213542
  O   -2.76603465068484     -6.17648126101926      1.99275951834454
  O   1.09099014590325     -5.55105300161647     -0.22383580529061
  O   -0.16896497976572      5.80944028374573      2.28768164899920
  O   4.35983381693621      5.77497662984848     -0.00315993729189
  O   -3.16223572177227     -0.52407586879716      0.94066557670022
  C   1.51347925250459     -0.46209280593199      2.75045820914851
  C   0.63265063768644      0.69150213703482      3.26465949326876
  C   -0.67742604206897     -2.34981021887888      2.83332388512263
  C   -1.51948287117034     -3.52565504600696      2.29986249825433
  C   -2.21153754908199     -4.26754451884097      3.46249641592938
  C   -3.28096400196889     -5.25845689608618      2.98553935892072
  C   1.61410300603906     -2.86052523433404      1.03708263372297
  C   2.22768228528165     -3.77086167233312      2.13148600537756
  C   2.80490638024564     -5.06911519040459      1.53035709046008
  C   1.73459852206910     -6.02634371958859      0.97450121117168
  C   -1.86629080282928      2.05810234757134      2.55261555849786
  C   -1.80627420467494      3.38540724291353      3.36295212593967
  C   -2.29058079464030      4.60047429061777      2.53155343563044
  C   -1.50554957748313      5.89443366296545      2.80217383429066
  C   0.71956921340154      2.98692809192985      1.41386942366255
  C   2.25849283050025      2.93241839528698      1.48259765476439
  C   2.73172394414233      4.35889195508534      1.13134069444396
  C   4.19132274609705      4.51377543798030      0.69528468993869
  C   -2.06865693813587     -0.38865185601752      0.57688285788955
  H   1.93240040923624     -1.04619548592885      3.58144851936544
  H   2.34047628473122     -0.07611887347087      2.13983308232672
  H   1.23028381549557      1.44377325773605      3.79586490681049
  H   -0.12235871917886      0.32121686332129      3.97107240378273
  H   -0.06419139609620     -2.68269799702714      3.68596870113078
  H   -1.34128709032951     -1.56279982903388      3.22086766991917
  H   -2.27924127971766     -3.14732761362103      1.60374769562126
  H   -0.89857984482237     -4.23602348019096      1.73825788144287
  H   -1.45234105856914     -4.79020044421500      4.06481455737830
  H   -2.70291959053720     -3.54321479139941      4.13151493290034
  H   -4.09673790035411     -4.72241034843330      2.48632195628171
  H   -3.71040178566113     -5.80633120861529      3.83481161893619
  H   1.06150719224137     -3.49931689223527      0.33564870557476
  H   2.40609556088991     -2.36163440584256      0.46079913812945
  H   3.00949374795790     -3.22239006309878      2.67481705938091
  H   1.46096986395371     -4.04981010021287      2.86958339168695
  H   3.52945690948862     -4.83705155180793      0.73599086833038
  H   3.35674798889448     -5.59587351137575      2.32319904940456
  H   -2.59524236749008      2.15203888116774      1.73741467472234
  H   -2.21412042730758      1.21935390292462      3.17372212905480
  H   -2.43824711771722      3.27000691655273      4.25228381882205
  H   -0.78887285290885      3.56855869183709      3.73763682187347
  H   -2.19142897923112      4.38195748349089      1.45777778384988
  H   -3.36283051466503      4.76239334929051      2.71623787217579
  H   -1.40890457930468      6.07951278924156      3.87894655553992
  H   -2.03622928844857      6.75270760059774      2.36120627074303
  H   0.44394562678614      3.26258131558052      0.39128148956483
  H   0.35727507496527      3.81900736443423      2.04424530640953
  H   2.60911003619393      2.63715945594997      2.48153637271362
  H   2.64251937085249      2.19714678566243      0.76162226849321
  H   2.13610940587907      4.69391424102023      0.27413265491139
  H   2.49742819157345      5.03874204663159      1.96248303683647
  H   4.46082011261382      3.74667818095869     -0.04137925627317
  H   4.90253319929152      4.44804610022575      1.52991463244241
  P   -1.08362825819506      1.42654711141236     -1.52101236092841
  C   -2.19682380865850      0.42990958345296     -2.61381808763198
  C   -1.39262718089236     -0.79427728333245     -3.09892185488245
  P   -0.39864450253166     -1.56047085050653     -1.69905699577859
  O   1.29659300629129      0.31982023108169     -0.23003132066138
  C   1.32895304500388     -1.80363081566019     -2.35935181351422
  C   1.68457136155879     -3.25426521896648     -2.73157103751919
  C   3.18886033364133     -3.43365931388237     -3.00149967472597
  C   3.56364580557962     -4.90064270471363     -3.20823777114386
  O   3.27931689423269     -5.61516568771129     -1.97702422772736
  H   2.98819006710832     -5.33669984876553     -4.03982957712406
  H   4.63429122426764     -4.98609433726318     -3.43964753985757
  H   3.77095891631320     -3.03904574894807     -2.15519416109504
  H   3.49161907496380     -2.87008059859823     -3.89584135399791
  H   1.11107569076710     -3.57691178434537     -3.61303570928244
  H   1.40357482469244     -3.91226851349472     -1.90336970001710
  H   1.99804098273954     -1.42611680873697     -1.57559242268497
  H   1.45343723858809     -1.12969053589346     -3.21976085043063
  C   -1.13752026199841     -3.24522059468857     -1.54114425688009
  C   -2.64687427607842     -3.30545206653231     -1.25396362680245
  C   -3.06530796435997     -4.76822058493269     -1.01646065405810
  C   -4.49955472100725     -4.89835689037825     -0.46990994990299
  O   -4.77203754859832     -6.21548981304391     -0.02141960923779
  H   -4.64061791349310     -4.15736416005333      0.34459249509499
  H   -5.24303900239585     -4.67552044507287     -1.24466899441093
  H   -2.38038436913849     -5.21272708777767     -0.28010470598866
  H   -2.96709510931783     -5.35269904356324     -1.94155022022955
  H   -3.22008054652656     -2.86991187815996     -2.08601784672115
  H   -2.89126623790317     -2.71610521582620     -0.36081586791643
  H   -0.58380290554016     -3.81467862298576     -0.78263878569093
  H   -0.92917392667955     -3.74764534043383     -2.49902516138367
  H   -2.05794677194595     -1.55493124455236     -3.52639065435735
  H   -0.68997663187540     -0.49701805580988     -3.88796030167461
  H   -2.55381261614398      1.03186877930651     -3.46112670006042
  H   -3.07435104421741      0.11567573618481     -2.03206977966836
  C   0.26586261321259      1.94855289784866     -2.66869717703648
  C   1.16731131477004      3.07565677857300     -2.12755009666393
  C   1.78323004476656      3.91797029916592     -3.25912146412715
  C   2.78712828059651      4.95068787283854     -2.74383758584014
  O   2.18359998973226      5.79287695579388     -1.73482677734705
  H   3.65931665998750      4.43917554878068     -2.31156214731254
  H   3.13949971448332      5.57733605279936     -3.57563014249309
  H   0.97576395072465      4.42852655155178     -3.80691900521386
  H   2.30343318002538      3.27641930080705     -3.98655413151091
  H   1.94990021474465      2.63282278380444     -1.49751981345337
  H   0.58267585873328      3.75663207180855     -1.49927901530753
  H   -0.23572968772622      2.26558683202441     -3.59745954564506
  H   0.86666902024017      1.06216474037911     -2.90742255838384
  C   -1.97898562979809      2.96499913280000     -1.04802647768700
  C   -2.29249884079549      3.96683138748391     -2.18980321591738
  C   -2.53400898878430      5.39010938261791     -1.62843681353983
  C   -1.25655856705416      6.22039180461293     -1.45830044057055
  O   -0.31891190572086      5.56805774655975     -0.56314583700324
  H   -3.07652264395719      5.32906978084249     -0.67302603150396
  H   -3.18627100220474      5.94399765080636     -2.31846594351151
  H   -3.17531722559072      3.61913270931045     -2.74189469583005
  H   -1.46328798824547      4.00840097300602     -2.90981599175376
  H   -1.35517041944554      3.47718183245144     -0.30679370044398
  H   -2.90573129382335      2.66165886222057     -0.53808133788186
  H   -1.50912132611992      7.21427808960586     -1.06192646828078
  H   -0.77101399856153      6.35860452868894     -2.43462345119186
  H   0.59567575130814      5.72302290640351     -0.93478155819358
  H   -0.23912833907616      5.85005266081676      1.29801132007011
  H   2.92022755679621      6.03598118540552     -1.11057159525905
  H   -2.41656127132882     -6.96852288183074      2.44566572322985
  H   1.76582279888999     -5.62849501710568     -0.94734542805025
  H   4.45348231261413      6.48553114078872      0.66238975010531
  H   2.18480928376796     -7.01385831906113      0.79021806796138
  H   0.92783249898195     -6.16550384391651      1.70772264212225
  H   3.59246904195435     -6.53459722663597     -2.09126010819858
  H   -4.10184872619848     -6.41723407955382      0.67739231397106
