132
Coordinates from ORCA-job BAJKON-oxo_2_3_tpss_d4_lanl2dz_631gpol_Fe2.opt
  Fe  -0.32083958157885     -0.04117042936240      0.07519282402054
  P   0.47078505782647     -1.55270495328252      1.63454776074805
  P   -0.25984283249678      1.50096957436096      1.82465883588081
  O   -2.60239043079469     -6.25254707381538      2.00615257832637
  O   1.05069383921266     -5.54341164535681     -0.26598619584975
  O   -0.16673364409774      5.81144980565948      2.28305591073014
  O   4.36301812924817      5.77830773644748      0.01884632853568
  O   -3.17887088611577     -0.49565006691153      0.92273444288743
  C   1.48975380299402     -0.47053737207689      2.74103746296671
  C   0.61129452605460      0.68519498252708      3.25534701444095
  C   -0.70926019061347     -2.34814346259801      2.81726906265763
  C   -1.53232301372254     -3.54288995363506      2.29395964157723
  C   -2.16587468387943     -4.31629847032009      3.46906553401425
  C   -3.17339792646961     -5.37639552141880      3.00813080953886
  C   1.58520276504659     -2.87302656533921      1.03023306921614
  C   2.17713685720571     -3.79530844717996      2.12714537954260
  C   2.73262137927461     -5.10439947680991      1.52862298084001
  C   1.64963327979500     -6.03381550468903      0.94936611474752
  C   -1.87790608065143      2.06970912353821      2.53799089218605
  C   -1.81451936630876      3.39474102998564      3.35192131549612
  C   -2.29492359311072      4.61392274465253      2.52395289089401
  C   -1.50335050671094      5.90331861088108      2.79664904602884
  C   0.71544517094219      2.98811362553089      1.40847448806865
  C   2.25394483759622      2.93594615992217      1.49489456933228
  C   2.72754524390438      4.36208467751347      1.14221967607272
  C   4.19050191261476      4.51805170441922      0.71785440525357
  C   -2.08492856557932     -0.37223027187320      0.56120154429189
  H   1.90370059745068     -1.05741067860778      3.57268177432678
  H   2.32119179601356     -0.08621471554766      2.13536870242661
  H   1.20987825106773      1.43234886933470      3.79267767423070
  H   -0.14882541198440      0.31537921360641      3.95648528703246
  H   -0.09882541655377     -2.66435562228286      3.67841835576673
  H   -1.38355183397002     -1.56355648141218      3.19090884640320
  H   -2.32231222690425     -3.18314287554799      1.62181638002226
  H   -0.90767016200378     -4.23160282834023      1.71050988282142
  H   -1.36795524920919     -4.78825095214652      4.06326975358926
  H   -2.69223557076903     -3.61865620862690      4.13960863320609
  H   -4.03557888810540     -4.90036127756252      2.52596928467072
  H   -3.54634351730185     -5.95495692957856      3.86317681884129
  H   1.03377817713094     -3.50203939686370      0.31924733707851
  H   2.38856185782635     -2.37999396849464      0.46463393813155
  H   2.96624804495666     -3.26125469704723      2.67430176842454
  H   1.40256296163525     -4.06082301977889      2.86176951878772
  H   3.47557497045943     -4.88634370201443      0.74733769585271
  H   3.25901890066645     -5.64674524548172      2.32821848139672
  H   -2.60186542826463      2.17051584180636      1.71912350367763
  H   -2.23362898580425      1.23136555420933      3.15514463667885
  H   -2.44718639678005      3.27830879142167      4.24058307624535
  H   -0.79676131394363      3.57403633185731      3.72754044167172
  H   -2.19855349364763      4.39732847577045      1.44940457413168
  H   -3.36612224313349      4.78010777495063      2.71088339173666
  H   -1.40657680060123      6.08625319296495      3.87380631534129
  H   -2.02916258041037      6.76514043009665      2.35690726621385
  H   0.45106689165122      3.25705983118833      0.38116477812797
  H   0.34729917352197      3.82403731496270      2.03029357812551
  H   2.59366229334581      2.64671153277676      2.49928786919506
  H   2.64901610535247      2.19900733533458      0.78174254502916
  H   2.13847369426779      4.69285438126296      0.27879520838098
  H   2.48471792265930      5.04452865100663      1.96871671078600
  H   4.46682221966833      3.75014065774906     -0.01545485155039
  H   4.89496972329580      4.45447178716085      1.55832951290055
  P   -1.08314888768060      1.44216705437667     -1.53647343059614
  C   -2.19339507922077      0.44620787688126     -2.63288660634718
  C   -1.39307143245828     -0.78221122642259     -3.11467236882940
  P   -0.40342770830224     -1.55554268522629     -1.71537142818932
  O   1.28927355915613      0.33188227093974     -0.23908034840386
  C   1.32762677308419     -1.79620387993325     -2.36687098805989
  C   1.68260374187797     -3.24600641004896     -2.74367014592388
  C   3.18806354727162     -3.42767635008361     -3.00569183969549
  C   3.56134301372630     -4.89554187533393     -3.20932280977985
  O   3.27180044731014     -5.60798558744402     -1.97796869223212
  H   2.98815046613253     -5.33197518990710     -4.04224935644939
  H   4.63263059305493     -4.98279696899980     -3.43691559390675
  H   3.76624137978693     -3.03406566268441     -2.15618219084706
  H   3.49676959551202     -2.86504316785407     -3.89857477037807
  H   1.11279248751402     -3.56383431843119     -3.62914779333625
  H   1.39606988065473     -3.90612379343529     -1.91914959060472
  H   1.99394320679304     -1.42533415911599     -1.57758171797591
  H   1.45767574300767     -1.11774691856339     -3.22299119948144
  C   -1.14253627868545     -3.23914432588788     -1.56567060036096
  C   -2.64510009998329     -3.29464440548467     -1.24512881201111
  C   -3.06732162215232     -4.75279948750083     -0.98543836931405
  C   -4.46388098790226     -4.86372478239981     -0.34849913457476
  O   -4.73527019441928     -6.17712673147132      0.10872376294050
  H   -4.53738526548332     -4.12041791306698      0.47495471103925
  H   -5.25135810497352     -4.61972596308354     -1.07238190715546
  H   -2.34349116727654     -5.20721465434983     -0.29314108099007
  H   -3.03240143020029     -5.33746846338566     -1.91487865763022
  H   -3.23661746045009     -2.85913311083738     -2.06427020184117
  H   -2.86351280000342     -2.69944378714150     -0.34888193380307
  H   -0.57683318686593     -3.81912320015002     -0.82408941658538
  H   -0.95368026217617     -3.73108897814637     -2.53297040147165
  H   -2.06251630773768     -1.54045232169301     -3.54016741350480
  H   -0.68941046289740     -0.48968908862265     -3.90461742556643
  H   -2.54520739073807      1.04811727529042     -3.48241885159263
  H   -3.07482126305417      0.13566054735190     -2.05497145941375
  C   0.27150950238917      1.96250247635551     -2.67890928321564
  C   1.17549972681918      3.08489169973738     -2.13186093164812
  C   1.80048258305597      3.92676735324714     -3.25868451002033
  C   2.80577833930167      4.95409537034490     -2.73513846024003
  O   2.19936165226658      5.79595086852529     -1.72774269961587
  H   3.67323327325537      4.43772618489973     -2.29900597383888
  H   3.16565131042040      5.58119035358555     -3.56334751984450
  H   0.99806716679606      4.44203378309472     -3.80945553012039
  H   2.32189893346905      3.28473750083279     -3.98479892988430
  H   1.95360298714020      2.63846678861432     -1.49879558036460
  H   0.59039199306637      3.76715910655025     -1.50537695222688
  H   -0.22758777103841      2.28498588088921     -3.60712070911026
  H   0.86901463283188      1.07484268006774     -2.92134140631105
  C   -1.97514649594984      2.98288929902583     -1.06463587789007
  C   -2.28275848432311      3.98745736183295     -2.20570457695701
  C   -2.52109196608158      5.41033916170810     -1.64199337352515
  C   -1.24113529916038      6.23547463277176     -1.46611559739195
  O   -0.30918447772888      5.57737053806554     -0.56923605794242
  H   -3.06654874710112      5.34902665258053     -0.68827547770388
  H   -3.16941441760224      5.96790248089273     -2.33272980975023
  H   -3.16526831140451      3.64347218875863     -2.76057572635341
  H   -1.45160535656820      4.02793380662484     -2.92354839951291
  H   -1.35093901938328      3.49232618581991     -0.32163225165029
  H   -2.90417914559968      2.68253699766062     -0.55707398506624
  H   -1.49119633084346      7.22948960516410     -1.06851976347667
  H   -0.75193392151604      6.37381198120594     -2.44061598695377
  H   0.60748984175480      5.73133790118260     -0.93608031447188
  H   -0.23544935269356      5.85708100822093      1.29368860899877
  H   2.93330421954791      6.03791015220954     -1.09978335348575
  H   -2.29298710498048     -7.07048775284718      2.44064437933614
  H   1.74402068558108     -5.62811260316467     -0.97109929291887
  H   4.45183644745858      6.48991789584186      0.68392388392707
  H   2.07715990148131     -7.03361865713465      0.77764769125305
  H   0.81939285247733     -6.14898815442829      1.66003702074465
  H   3.58845586672989     -6.52672315180042     -2.08833631752827
  H   -4.00342631725719     -6.41811512396625      0.72663405548591
