133
Coordinates from ORCA-job BAJKON-OH_2_2_tpss_d4_lanl2dz_631gpol_Fe2.opt
  Fe  -0.27374884593122     -0.07347874162134      0.09055090909196
  P   0.55869466377020     -1.54112388485451      1.65288375410822
  P   -0.20368809813086      1.44488209049579      1.84705121414288
  O   -2.91668991797380     -6.06128240014035      2.02303119672367
  O   1.07860349483428     -5.56334304626516     -0.20285764359002
  O   -0.21473707023496      5.78031101478052      2.26811306702706
  O   4.28964403747944      5.87407802479082      0.01508736015819
  O   -3.07456865037695     -0.53066565414712      0.87572511936990
  C   1.59541910741251     -0.47157001070518      2.75648406628496
  C   0.71514695552069      0.67905134494994      3.27769644552046
  C   -0.61955970858797     -2.31988449642401      2.84951555307247
  C   -1.50137140446289     -3.46527855562247      2.31403078314144
  C   -2.23820169351463     -4.17020842625887      3.47191911090370
  C   -3.36867571229850     -5.09122769742630      2.99843334512382
  C   1.66713280245603     -2.88067805261461      1.06684596527513
  C   2.23546331403293     -3.81944255697070      2.16010974738269
  C   2.80465141568817     -5.11783945360972      1.55123949717651
  C   1.72863452931527     -6.06077795291045      0.98272172802234
  C   -1.82062367032482      1.98218387180201      2.58779874077086
  C   -1.77973664240379      3.31801373518550      3.38334948615080
  C   -2.29848613860437      4.51183249987566      2.54206073818639
  C   -1.54810817165152      5.82962712986630      2.79662692028402
  C   0.72512390237304      2.96432066316836      1.40936541796315
  C   2.26259704451087      2.97436835704061      1.50269759291289
  C   2.68890689369601      4.41069222589593      1.13047361221303
  C   4.14719484852228      4.60592840499961      0.70720540405511
  C   -1.96640801972416     -0.38798450056615      0.53948532826490
  H   2.02101235235464     -1.05911213258466      3.58144251737955
  H   2.41606378106567     -0.08209835105661      2.14075143552685
  H   1.31287741853459      1.44755134777605      3.78464553078905
  H   -0.02067172147019      0.31154456082381      4.00539174686848
  H   -0.01717762626907     -2.67259931861494      3.70135895469497
  H   -1.26300535347796     -1.51599441982819      3.23818404949390
  H   -2.23670637343908     -3.05720267557371      1.60859917307051
  H   -0.90175493612393     -4.20105308000705      1.76162084725137
  H   -1.51371323087139     -4.73824145079752      4.07583833703724
  H   -2.68597814420125     -3.41901658900507      4.14209736649278
  H   -4.13875545477685     -4.50729301288982      2.48064500245347
  H   -3.84496400045591     -5.59529666933529      3.85016713125406
  H   1.12357986734378     -3.49654076417359      0.33849099477059
  H   2.48889026368398     -2.39155387628238      0.52508493553459
  H   3.01330640041608     -3.29419779763085      2.73145054944264
  H   1.44728229513004     -4.09679279503321      2.87586300707577
  H   3.53626136503605     -4.88579537408860      0.76271532279249
  H   3.34805002060561     -5.65888060534603      2.34040756780247
  H   -2.56792532705793      2.04780958758582      1.78669461128241
  H   -2.13706179031670      1.14215079374440      3.22400584037259
  H   -2.40075718321622      3.20273500449029      4.28037425636952
  H   -0.76249191519925      3.52524557049173      3.74596070833010
  H   -2.20078152144380      4.28517691803037      1.46990244018284
  H   -3.37326184116866      4.64963019439378      2.73119500780516
  H   -1.44552568306007      6.02535817796984      3.87071698087395
  H   -2.10547722046868      6.66919685479307      2.35260931418664
  H   0.45640789966752      3.20884796176185      0.37731221629764
  H   0.32605214563362      3.79647413835788      2.01803030268302
  H   2.60919486634366      2.71340449791389      2.51208725633668
  H   2.68826287949698      2.23735774110236      0.80712897351181
  H   2.09060202548296      4.71590042780986      0.26367041911380
  H   2.42522527629594      5.09466414770620      1.94930872140973
  H   4.44311331098729      3.84907201122793     -0.03018359549257
  H   4.85291130551145      4.55514156428028      1.54742837439084
  P   -0.98302183681041      1.39963708059682     -1.52602601246432
  C   -2.08877142179743      0.41532134299351     -2.64223812235460
  C   -1.30574942576918     -0.83114532577507     -3.10269760299261
  P   -0.36592296677531     -1.58989524384095     -1.66364551420252
  O   1.53072419381791      0.27322785377816     -0.16122494510180
  C   1.36770345205082     -1.88495673485091     -2.28787068134889
  C   1.65841579936749     -3.30261977029000     -2.81269863480973
  C   3.16461290017320     -3.53713467275358     -3.03260742176170
  C   3.48733836232295     -5.00963461541705     -3.28261195062754
  O   3.16221114320083     -5.74740844895218     -2.07681576240168
  H   2.90614674245861     -5.39800876760564     -4.13367374983934
  H   4.55697178670627     -5.12779761000910     -3.50520350132144
  H   3.72589802077150     -3.20637779695972     -2.14565885854946
  H   3.52871796445913     -2.94879091209046     -3.88694977776322
  H   1.10960248967104     -3.49136245723899     -3.74720315108715
  H   1.30527120585309     -4.03027851712094     -2.07584787799627
  H   2.02490406956834     -1.65436687274511     -1.44084677768303
  H   1.57336810260420     -1.12554428854181     -3.05842991266603
  C   -1.13114210391346     -3.26290686448175     -1.50599787945120
  C   -2.64673278185569     -3.30443579417166     -1.24499908267585
  C   -3.07835144901545     -4.76405489904989     -1.01264457983897
  C   -4.53810571395523     -4.88847719318193     -0.53168875468241
  O   -4.81384621861716     -6.19385090348680     -0.04600496740447
  H   -4.72602496062026     -4.12999841114090      0.25463391488969
  H   -5.24796616642216     -4.70449311142417     -1.34605847674612
  H   -2.42852925967494     -5.20143101907853     -0.24191672585910
  H   -2.94156735063670     -5.35851121848275     -1.92639819858892
  H   -3.19861312631930     -2.86752097352395     -2.09075263639717
  H   -2.90296502127701     -2.70992130021305     -0.35972964655036
  H   -0.59577994656364     -3.83254073158404     -0.73426941501858
  H   -0.91700592479656     -3.77528713262854     -2.45706404345705
  H   -1.97781325172963     -1.57981243034318     -3.54057258150174
  H   -0.57731843511223     -0.55807374784330     -3.87781377957079
  H   -2.42471405285316      1.01605843072389     -3.49869375104764
  H   -2.97971976044995      0.12292572599329     -2.06873515448472
  C   0.32602506079432      1.99853952777693     -2.70553982747430
  C   1.20618032051889      3.14822803857351     -2.16791684043428
  C   1.76247240901966      4.04014858843223     -3.29173779964972
  C   2.73762509242494      5.09899485311613     -2.77178260963371
  O   2.12726345892424      5.88603619744895     -1.72438377041399
  H   3.64087631028370      4.61185595097024     -2.37605352774859
  H   3.04281952064776      5.76170218629333     -3.59410630622413
  H   0.92132115677045      4.53052400938502     -3.80572702490672
  H   2.28815136799933      3.43739695702407     -4.04782376023381
  H   2.03265435325172      2.74488618623204     -1.56271442705356
  H   0.61249605765351      3.78868929051106     -1.50631459215119
  H   -0.21490779978439      2.33068946024550     -3.60563871515392
  H   0.93943509131772      1.14293442050128     -3.02716891200028
  C   -1.92294687028766      2.91610916914800     -1.05584067854002
  C   -2.29354475097272      3.91015813746690     -2.18438165383206
  C   -2.58167883414435      5.31961000077492     -1.61119830525040
  C   -1.33334682076608      6.19281549211408     -1.43972196858488
  O   -0.36273880046013      5.56151250235559     -0.56363748345714
  H   -3.11806366782488      5.23162707603255     -0.65435193863823
  H   -3.25511108403245      5.85800598800843     -2.29314860281449
  H   -3.17106628327465      3.53331304119800     -2.72578952008447
  H   -1.47919825707896      3.98968989417588     -2.91847269917800
  H   -1.31461999425636      3.45050552199555     -0.31825029409933
  H   -2.83008033064768      2.57317509105583     -0.53485098787538
  H   -1.61621232187807      7.17144301397989     -1.02618414581316
  H   -0.86267387427475      6.36305543263653     -2.41828788641010
  H   0.54307726844270      5.76360438973953     -0.93397716018046
  H   -0.29420358411018      5.81619280239575      1.27730002934744
  H   2.86100688209397      6.11677938534826     -1.09154880611540
  H   -2.55990989980507     -6.83998072424637      2.49382440379463
  H   1.73786623519988     -5.65207270665382     -0.93841563962338
  H   4.36495106172395      6.58362872805016      0.68405457975293
  H   2.17410814173524     -7.04680190140833      0.77943394210809
  H   0.92692909369395     -6.20892177197946      1.71981858239569
  H   3.39184475963292     -6.68506668206537     -2.23204276985894
  H   -4.18798348539029     -6.34760113145206      0.70878514679757
  H   1.68257454283514      0.69928439483353     -1.03035277452706
