131
Coordinates from ORCA-job BAJKON_2_5_tpss_d4_lanl2dz_631gpol_Fe2.opt
  Fe  -0.64405773596963     -0.09809903477529      0.29581625086712
  P   0.33544496533310     -1.65372698427127      2.04324304779430
  P   -0.04637725281065      1.62026757406501      2.02137522215346
  O   -3.06911426204370     -6.17523781075026      1.97320310447281
  O   1.45107733532600     -5.32667268587320     -0.31350507142878
  O   -0.92369224110845      6.80275459809858      2.00956617205673
  O   5.23441424602818      3.87160772285074     -1.09895269502362
  O   -3.56414607093653     -0.29698777158107      1.22976528541992
  C   1.27290998448246     -0.55868833271476      3.22873546776987
  C   0.46880360247501      0.71943226510500      3.57070757206436
  C   -0.83191579381479     -2.52935938121174      3.19029510663849
  C   -1.75580031889244     -3.56524723033981      2.52028342636760
  C   -2.54580393089378     -4.36482795817539      3.57460574882398
  C   -3.62040152802495     -5.27058503634897      2.96422564802753
  C   1.55485317324737     -2.92558806630403      1.48506638477398
  C   2.02194059505408     -4.00043821736512      2.49050847165916
  C   2.79452924758404     -5.13579250829706      1.78515805993138
  C   1.91874428112608     -6.00726137793437      0.86504937715402
  C   -1.51660881950645      2.67880575350746      2.46808018985149
  C   -1.20930801200345      4.08933659159473      3.00917343944059
  C   -2.41637277957580      5.03536690956287      2.86645158313793
  C   -1.97062163874701      6.51355617506802      2.93135427404149
  C   1.32327142542114      2.81469609645798      1.67305063849806
  C   2.59032367287925      2.17752848490905      1.07315238300826
  C   3.57237531041560      3.27623334699380      0.61459624728673
  C   4.60385003035766      2.78512826610613     -0.41457109155127
  C   -2.47244252611063     -0.24515167344134      0.84416568077665
  H   1.52039361696204     -1.11302763347666      4.14527166659390
  H   2.22318169046394     -0.29380618144582      2.74429843618115
  H   1.05500739079841      1.38324561868644      4.22164351400419
  H   -0.44650595061036      0.45798277944143      4.12130954465750
  H   -0.22944399483362     -3.00297397423001      3.98035740863608
  H   -1.44174219444211     -1.75565875636615      3.68129250616786
  H   -2.45582990298718     -3.04580898236631      1.84914260072281
  H   -1.17820294606058     -4.26115959682010      1.89620845040242
  H   -1.84736823516119     -4.96595445252891      4.17731473206848
  H   -3.04750651532565     -3.67383073443439      4.27030825015372
  H   -4.36085562317350     -4.67192753694457      2.42066888564796
  H   -4.14973975598088     -5.83482104763787      3.74352352111114
  H   1.13005895550772     -3.43776133822177      0.61153701070382
  H   2.42603942188693     -2.36533319258642      1.10808296914511
  H   2.64715272593359     -3.54259508897143      3.27022934377567
  H   1.15312818913609     -4.44403704488652      2.99980810217845
  H   3.63508235004436     -4.72576651255436      1.20402250231581
  H   3.23190339031043     -5.78866538699295      2.55554473206052
  H   -2.09762658893495      2.76840968786713      1.53951693370512
  H   -2.14137692207068      2.09756938326637      3.16256116062872
  H   -0.87409569258806      4.03598350293616      4.05437939229321
  H   -0.39506432994489      4.54472571539697      2.43244739260795
  H   -2.89504090322763      4.86360458202589      1.88913031823020
  H   -3.17865985931058      4.84654768390630      3.63536079917254
  H   -1.57687052296796      6.76739844820832      3.92236861837027
  H   -2.84657821707990      7.15761664033940      2.73815563445134
  H   0.92271919905448      3.54781586260484      0.95780474312645
  H   1.56112016643645      3.36761689160684      2.59357171395990
  H   3.07518350476079      1.51178447857012      1.80124897909582
  H   2.29906640798456      1.54774122811973      0.21415557445350
  H   3.00114898031805      4.09247639354458      0.15047348192644
  H   4.08240600477657      3.70774503413884      1.48902896990437
  H   4.09530729803026      2.21375503069948     -1.20421796896975
  H   5.34672795787848      2.11573243832591      0.04977581103765
  P   -1.04239320385359      1.52236637073938     -1.62137977131402
  C   -1.95677121797366      0.38447725434116     -2.77612676560291
  C   -1.05357443660233     -0.81225477352854     -3.16779808514696
  P   -0.28561993335142     -1.62264164302577     -1.65952697471936
  C   1.53871507692093     -1.75385376759973     -2.01519508661675
  C   1.99273895333401     -2.97098214555138     -2.84336546529938
  C   3.52623814952119     -3.13379103688952     -2.81932186576152
  C   3.97107801229125     -4.53805137540566     -3.22388435256196
  O   3.52310911630581     -5.44784125591238     -2.18889570751482
  H   3.53640809236566     -4.82286312788504     -4.19456688929244
  H   5.06663423704446     -4.58271371106846     -3.30333168311533
  H   3.90378016823588     -2.94379584135919     -1.80262976720177
  H   4.00593305073141     -2.40153396815864     -3.48378567992423
  H   1.63584231152101     -2.88446397431756     -3.88003829038512
  H   1.54177682027910     -3.87619329096971     -2.42248017179793
  H   2.03324051766837     -1.78288866497994     -1.03390167831254
  H   1.84859024795974     -0.80652669777684     -2.48347815758829
  C   -0.94145309093555     -3.35320662428770     -1.68934432000418
  C   -2.44163708783006     -3.41383120942352     -1.34865749300269
  C   -2.88731714360304     -4.86526755179204     -1.11669092527112
  C   -4.37534067331317     -4.96746334395610     -0.71148030992345
  O   -4.70264763700406     -6.27216386739875     -0.25901070213432
  H   -4.58701358037562     -4.21936858038662      0.07661491566042
  H   -5.03369382460600     -4.75862193548739     -1.56198053021912
  H   -2.27960809821957     -5.29930997447175     -0.31065750579675
  H   -2.72094610311982     -5.47208828930717     -2.01706536226107
  H   -3.03611314511717     -2.95305740910264     -2.15271434819292
  H   -2.63194883723044     -2.82373958776604     -0.43792242030541
  H   -0.35672509986980     -3.95580762366606     -0.97810345081682
  H   -0.75425092697772     -3.77830764484053     -2.68676128552763
  H   -1.63777002627535     -1.55908938564241     -3.72193117064980
  H   -0.24761208215812     -0.48143084904978     -3.83719785821396
  H   -2.29596547368132      0.92196092626907     -3.67291461624380
  H   -2.84958607897654      0.02298994473067     -2.24518839026389
  C   0.24927898457280      2.27077350405045     -2.72949031263098
  C   1.01572843788662      3.40945978616358     -2.02111933348006
  C   1.49239298914933      4.51432786076969     -2.97971856829346
  C   2.29612796353146      5.59529709606612     -2.25628785001716
  O   1.53520710105304      6.01231978523559     -1.08297078804842
  H   3.26892897272761      5.20165516400200     -1.92876774825687
  H   2.45945687948273      6.45673719464683     -2.91833447181956
  H   0.61672163941898      4.96652438975427     -3.47068080089010
  H   2.12668412364501      4.09635453305143     -3.77450797778756
  H   1.87134362799578      2.98570420736982     -1.48302442504185
  H   0.37262299493808      3.88517396763616     -1.27150366161726
  H   -0.26026736309846      2.63852066125321     -3.63341461945945
  H   0.93870040602980      1.48136546227343     -3.05912153502594
  C   -2.17658123201258      2.93393448398654     -1.23618184724736
  C   -2.61886886806789      3.85632341173549     -2.39530214433338
  C   -3.11470166998591      5.22495570186849     -1.87234578500221
  C   -1.98716793338838      6.21564519031288     -1.56486637163466
  O   -1.12873437840244      5.71282879727011     -0.50647956661930
  H   -3.73997596938691      5.08436834166192     -0.97746045753915
  H   -3.75724028319748      5.69327153582931     -2.63173590773734
  H   -3.40965072814295      3.36315656289171     -2.97598729753982
  H   -1.78341704270669      4.03457294651861     -3.08803286786902
  H   -1.65228140139155      3.54812446416432     -0.49233839629619
  H   -3.05459991013710      2.50447957797517     -0.72873966132521
  H   -2.40947834477809      7.18299144123190     -1.25708691712818
  H   -1.37991529156089      6.38149942303710     -2.46656496813845
  H   -0.18340825871855      5.91475633649936     -0.74874489982578
  H   -1.18963948294563      6.48463525419349      1.10120035059791
  H   1.99058190514777      6.77434863836736     -0.67425249459059
  H   -2.73390602708865     -6.97290506563404      2.42788695812486
  H   2.19190962294215     -5.33274042950856     -0.97159530527603
  H   5.87329799402825      4.28760534213515     -0.48666215508038
  H   2.47348439249994     -6.91430029146615      0.58057177297465
  H   1.01655535565159     -6.32963139953777      1.40422942972647
  H   3.69814716781209     -6.36166253970497     -2.48702870209192
  H   -4.16282748148240     -6.42539033532960      0.56344583700889
