40
Coordinates from ORCA-job CUJNUQ-CH3OH_0_4_tpss_d4_lanl2dz_631gpol_Mn2.opt
  Mn  3.53219074090985      2.84207731850704      0.22492189063250
  N   5.28101562891064      1.90447398285150      0.72679479916883
  N   5.44198543556899      0.92917994452389      1.45282527489808
  N   5.64708706637974      0.00252501092830      2.13060136395126
  N   2.67753065772557      2.52828728544019      2.03939245693114
  N   1.42359820238984      3.01468031154048      2.23073267970892
  C   0.97403426359511      2.78083239541492      3.48288263394857
  C   1.98809090209021      2.09919027206445      4.15431475691437
  C   3.02705988757700      1.96760694481137      3.21653984528663
  N   4.50651019451023      4.83450726172517      0.79209088192688
  N   5.79519724208997      4.65319042000526      1.16836162435420
  C   6.46597448373288      5.82589685916220      1.28615209816112
  C   5.55906338134598      6.83644659052890      0.97725938723880
  C   4.35574583743708      6.16531048294630      0.67409839913340
  H   1.01436293426391      3.45903329597631      1.39493796025512
  H   -0.00837558504968      3.10888381942902      3.79695971661699
  H   1.97494802814122      1.74691797932251      5.17724240951131
  H   3.98702985000657      1.48192492334277      3.32582934482968
  H   6.09244735432761      3.67121161197248      1.23924227011829
  H   7.50742935711709      5.85291938593720      1.58067372431049
  H   5.74487958281515      7.90274271457030      0.97389733452709
  H   3.39915037439797      6.56924368222689      0.36589213021512
  N   1.72758633632655      3.64428670784488     -0.35885480299668
  N   1.56747353422162      4.66760513123720     -1.00700579065747
  N   1.38291683751617      5.64746096660345     -1.61854780253317
  N   4.35328357455873      3.06890880170197     -1.62848761689970
  N   5.50313517789712      2.39678039314610     -1.89579303392457
  C   5.95044116742056      2.63613152839059     -3.14995831545813
  C   5.04078579792781      3.51012118208114     -3.74162495940883
  C   4.06366192586513      3.75015913289213     -2.75713828777509
  H   3.18990806110500      4.38757061133374     -2.79954418902442
  H   5.07902225642390      3.91422361073481     -4.74469160324476
  H   6.85597689149820      2.17383550586970     -3.52117216607114
  H   5.88609650862931      1.88999092080679     -1.08301938171858
  O   2.23216795702287      0.96266513572503     -0.63174281000732
  C   2.57861630030118      0.30362348280570     -1.86076598638597
  H   3.38980112433192     -0.39066692555437     -1.62110584039894
  H   1.72366929907681     -0.26714893427440     -2.25304960616406
  H   2.92527182698885      1.01736290120077     -2.62196730028897
  H   1.61427960260492      1.70762735422708     -0.83599348968098
