34
Coordinates from ORCA-job CUJNUQ_0_4_tpss_d4_lanl2dz_631gpol_Mn2.opt
  Mn  3.39266305526028      2.88723807922508      0.17445712130532
  N   5.04049172755613      1.77278851585724      0.61386861761387
  N   5.17333921435548      0.76397267392117      1.29759870118652
  N   5.35716403676854     -0.19567483606484      1.93492769896905
  N   2.46343017193230      2.41514850035847      1.92139801127414
  N   1.21921434854690      2.92890260817188      2.11676879814172
  C   0.71451974443044      2.59028688914256      3.32100382968482
  C   1.67561402403197      1.80500837207906      3.95767779511803
  C   2.74507286430193      1.72623032066374      3.05044519117045
  N   4.56907705855908      4.68082443188166      0.73521091978047
  N   5.83479278690792      4.42489392035221      1.14262871953210
  C   6.54623617188876      5.56061463932474      1.34604906716145
  C   5.69264405803643      6.62282321772445      1.05813886209447
  C   4.47437225104581      6.02135258115330      0.68120722604958
  H   0.87317496538145      3.49325832305385      1.32314707758903
  H   -0.26694833378261      2.92459205053398      3.63175095566006
  H   1.60811802084705      1.35410440782750      4.93881312600853
  H   3.68178216335179      1.19443453590695      3.14693779445858
  H   6.07748261869475      3.42859256623174      1.19364464803026
  H   7.57720527517563      5.52952241347972      1.67457580209555
  H   5.92327858917647      7.67868384009760      1.11438792766102
  H   3.54602554436994      6.47907401075301      0.36309909917614
  N   1.73694439851968      3.88408736254735     -0.28759775480681
  N   1.59143682158132      4.85514202580441     -1.01150117699419
  N   1.40196831703308      5.79190997274710     -1.68672356470342
  N   4.08051424662083      2.90982913731090     -1.74223737521303
  N   5.25308328936526      2.27807115255393     -2.01399022106953
  C   5.61966190238816      2.42293832054839     -3.30609476036906
  C   4.63722401665476      3.19875208527465     -3.91938490996835
  C   3.70017857969896      3.47495683183716     -2.90845934681827
  H   2.79346365938692      4.06255848398079     -2.95866287079435
  H   4.60479501611678      3.51598359761091     -4.95321311530662
  H   6.52680639125066      1.97152665499648     -3.68679806573985
  H   5.66767300454698      1.79837231311272     -1.20237382797767
