34
Coordinates from ORCA-job CUJNUQ_0_6_tpss_d4_lanl2dz_631gpol_Mn2.opt
  Mn  3.68605465288819      3.42861129501849      0.42061618735784
  N   5.51696215187893      2.27234528650407      0.81377897108148
  N   5.65555730945346      1.35216739842536      1.61001771946382
  N   5.80064898777631      0.47499644367845      2.36711876780715
  N   2.41748441532689      2.31867581978587      1.81089808463332
  N   1.12187657047431      2.72886979141518      1.82799454884501
  C   0.37425306488042      1.99675684364287      2.68199769659559
  C   1.22269465925006      1.05245344683378      3.25971509845751
  C   2.48384496647013      1.29205179863512      2.68540030899952
  N   4.94560048731791      5.16417871261564      0.83291711754566
  N   6.24367693686638      4.91136057032673      1.14035298367109
  C   6.95250975373330      6.05055999883855      1.30786057002221
  C   6.07059451120566      7.11046167413799      1.10133863793833
  C   4.83334812404823      6.50861434333408      0.80696008617154
  H   0.91817635599375      3.52349382367219      1.19554952354224
  H   -0.68137922469040      2.19523199255277      2.81477482741943
  H   0.96124515332906      0.30009659428251      3.99196891524762
  H   3.42706945962885      0.78590011752301      2.85207618335898
  H   6.48640751816588      3.90772147119810      1.17025160916556
  H   8.00542405082590      6.02568436249853      1.55713501064890
  H   6.29593490558667      8.16726974686410      1.15598640281257
  H   3.88124590802243      6.96537366514691      0.56507170613306
  N   1.96479608908413      4.52569753255187     -0.02589307577737
  N   1.81233492683972      5.69220115733158     -0.34494862790633
  N   1.65659030044791      6.81040457768889     -0.65198575854112
  N   3.96801238019406      2.77094761574185     -1.63069972406916
  N   5.06700960169078      2.02896713040405     -1.91167337457523
  C   5.16086851579997      1.74938201011779     -3.23182346483449
  C   4.05948114360756      2.34129546020469     -3.85016453355158
  C   3.34766895193721      2.96645007006045     -2.80969101503647
  H   2.43098642877896      3.54157541657034     -2.83260442929193
  H   3.81308205224107      2.31825327149989     -4.90347905485258
  H   5.98094176373872      1.16358882913686     -3.62644891092338
  H   5.65149712720743      1.80916173176129     -1.08966898755881
