40
Coordinates from ORCA-job CUJNUQ-CH3OH_0_2_tpss_d4_lanl2dz_631gpol_Mn2.opt
  Mn  3.51410185222887      2.90728008725942      0.10729258145735
  N   5.18068104009533      1.82818109554147      0.61416713410705
  N   5.09947109007923      0.66415348206709      0.99678520103458
  N   5.06795314882088     -0.44508719923434      1.35374542212366
  N   2.75674234182163      2.66243063298394      1.94279419088191
  N   1.49467135668355      3.09479653362967      2.18678966078624
  C   1.12845180503978      2.89764702237377      3.47798365436020
  C   2.21024351601543      2.29523381482373      4.11203284426582
  C   3.20030561254280      2.17165172428813      3.11704826502601
  N   4.51293577942912      4.53245310616865      0.61765575273044
  N   5.63285166408246      4.40303304527745      1.37574040465156
  C   6.20691617650048      5.60605004608415      1.63903137008330
  C   5.40386594921106      6.57117634662432      1.04257318265562
  C   4.36186808166357      5.85593961128178      0.41520026369045
  H   1.03101384746943      3.52863391764887      1.37878411088206
  H   0.15044607391012      3.19246131563096      3.83503539207444
  H   2.27224463181682      1.98478915750770      5.14669460102112
  H   4.19276953948515      1.74801310112739      3.18146270828394
  H   5.93282781868699      3.43401730031349      1.52938146363801
  H   7.11657281960359      5.67755031812884      2.22079230827191
  H   5.54975671510503      7.64322116227171      1.05789251987582
  H   3.52833837745904      6.22138897115825     -0.17060015677568
  N   1.74253520143660      3.77140085059736     -0.43493278014222
  N   1.57880809342586      4.81022683739040     -1.05732894426508
  N   1.38976090363338      5.79944207648167     -1.65026927891026
  N   4.29411112976458      3.13447572204421     -1.73231391187857
  N   5.55161608631803      2.66155522198027     -1.93445037788237
  C   5.99060235856728      2.89906493636094     -3.19582569319371
  C   4.96745612820331      3.57326668884121     -3.85423862104016
  C   3.93268452145172      3.69758751716044     -2.90480640153496
  H   2.97104173519163      4.18318141439697     -3.00127691347974
  H   4.96947052317035      3.92944526684676     -4.87600512690631
  H   6.97282659827244      2.57843701308187     -3.51767863359841
  H   5.95557857476775      2.18247741483531     -1.11723309538941
  O   2.35448418067782      1.22888904295095     -0.41740045624431
  C   2.81013164484891      0.29754578935255     -1.42767485814258
  H   3.59525107450562     -0.29904929361337     -0.95799729029351
  H   1.97851160018154     -0.35845004034539     -1.71523587301492
  H   3.20393841081936      0.82470661221170     -2.30558184443560
  H   1.64721199701320      1.80840233646953     -0.79685277477371
