36
Coordinates from ORCA-job CUJNUQ-OH_0_1_tpss_d4_lanl2dz_631gpol_Mn2.opt
  Mn  3.29503083084158      2.73452568848236      0.02513029900980
  N   5.02400254516619      1.71252123734503      0.53246412805792
  N   4.95284553959048      0.55345649142323      0.93094310913231
  N   4.92389204719312     -0.54216072172536      1.31923346510183
  N   2.58166357096430      2.56978953174765      1.89722674360430
  N   1.52733046579456      3.33802596332719      2.25630045894130
  C   1.14390492936324      3.10236095629912      3.53065423054321
  C   1.99970577987630      2.12495120584796      4.03502619602492
  C   2.87877890892387      1.82414819788543      2.97873263479971
  N   4.45922850806843      4.38953026670601      0.66130460741573
  N   5.61974865234859      4.18075490846964      1.32194582753483
  C   6.20508108141905      5.34318803643775      1.69565580112732
  C   5.37243154870985      6.37058748125514      1.25700086665709
  C   4.29625409602523      5.72385130930120      0.61920969281669
  H   1.16850307696225      3.93856006163181      1.50039801124878
  H   0.31083595239609      3.63298701111854      3.97281292965991
  H   1.98425033497647      1.68806477596538      5.02465435470269
  H   3.67540259683576      1.09447135420451      2.93758003836479
  H   5.88323889326263      3.18830255130728      1.40205231445517
  H   7.14432528186516      5.35159821860291      2.23343084597568
  H   5.52426027604934      7.43443835827266      1.38366113520585
  H   3.41675981622223      6.13357022134576      0.14209278905855
  N   1.85366861944984      4.07802539419510     -0.25852944399669
  N   1.42740283727559      4.59614928706966     -1.27537109482378
  N   0.97375371488680      5.12777931187426     -2.21261158493926
  N   4.07931866014580      2.92303172157083     -1.82906943596798
  N   5.36034416860377      2.50247931513301     -1.99404436001014
  C   5.79187920823943      2.68749886330114     -3.26152999201955
  C   4.74086114014276      3.27076427118593     -3.96562682019230
  C   3.69524754782293      3.39704274949456     -3.03310379549366
  H   2.70578406744113      3.81314867169696     -3.16759588138110
  H   4.73222922791120      3.56546223272745     -5.00652507172775
  H   6.79114363998545      2.39889220719023     -3.56066776703331
  H   5.75910682306684      2.04705359407858     -1.15631635256317
  O   2.39558810808292      1.25529784094487     -0.43491389080819
  H   2.54725750409054      1.05469143428595     -1.38322498848152
