36
Coordinates from ORCA-job ARAHEI-oxo_2_3_tpss_d4_lanl2dz_631gpol_Co3.opt
  C   0.84467319797584      2.32417317399188      8.33524065399127
  C   -0.25991358924096      2.77084583638907      9.06036941454725
  H   -1.06943341869106      3.30050726037472      8.56429252494794
  C   -0.31264350091496      2.49461604447677     10.43625635529102
  H   -1.16223880514676      2.83653699753724     11.02307913777981
  C   0.70055804912952      1.74134595042578     11.05097386535306
  H   0.63768090458915      1.47104979912571     12.10214565284507
  C   1.78016226786453      1.32154282997114     10.27376316679820
  C   2.85950301939610      0.34988356334979     10.67615057791564
  H   2.45377468995759     -0.66716220157388     10.59704903556180
  H   3.22684597998266      0.50154708485337     11.69840962212586
  C   5.12242342126113      1.37608318251256     10.13064047531316
  H   6.02381980838950      1.07288102589512      9.58501758311833
  H   5.31072941801673      1.26536569292366     11.20545466821575
  C   4.71026184182815      2.80028164159772      9.76106145671218
  H   3.80881844425341      3.12315490438506     10.29250769152640
  H   5.51593825694618      3.51838104264377      9.96026542571295
  C   3.68774199298717      3.89813305631267      7.65355912813831
  H   4.35497159227829      4.76514998242421      7.56520863630622
  H   2.83454199067808      4.17194577440303      8.28336420036766
  C   3.25630160465671      3.38241072069902      6.28121658799742
  H   2.65326266679485      4.11762723859140      5.73465497969703
  H   4.12732670847857      3.12197927559359      5.66802747529222
  C   1.00781941266580      2.33226343169700      6.83706976712383
  H   0.64741450388808      3.25190411663279      6.36041818942026
  H   0.44799918397323      1.48178760644642      6.42640310796262
  Cl  2.20036403906187     -0.80619926165736      7.52010695933273
  Co  3.36344627737313      1.09129958531128      7.93762950797291
  H   4.38979693488893     -0.50360611051937      9.55083222719972
  H   2.50900755648226      1.52935587974560      5.63805503922547
  H   5.27684693631888      2.58832058277877      7.78725746706127
  N   4.01287277434940      0.44131378284152      9.70299840340818
  N   4.39824817277645      2.75189385786225      8.29909353239675
  N   2.46138217890694      2.11241990297500      6.48413054336598
  N   1.85022560270845      1.67276702099938      8.96748909530011
  O   4.57906988513605      0.44339972798326      7.01300784467537
