41
Coordinates from ORCA-job ARAHEI-CH3OH_2_5_tpss_d4_lanl2dz_631gpol_Co3.opt
  C   0.71755554001075      2.31160911351488      8.39018801449793
  C   -0.38165477479637      2.78316816472537      9.11045122593587
  H   -1.16860087567250      3.34554705284140      8.61341825244920
  C   -0.45015001487924      2.50661715472183     10.48467763481961
  H   -1.29439480369627      2.86707275706502     11.06842365087953
  C   0.56433691766193      1.76334821576344     11.10785886893263
  H   0.51579302801762      1.53046408930515     12.16899266735643
  C   1.63717357114955      1.32105999867130     10.33199720460000
  C   2.75858571003674      0.43299517717175     10.83071642907239
  H   2.42685189266370     -0.61231755362075     10.76830240215778
  H   3.00294094310986      0.64654836115333     11.87991476942648
  C   4.93946381665002      1.62707341644623     10.40666464119266
  H   5.91165878646292      1.39277777586337      9.95625251607128
  H   5.06120843301424      1.61858377581839     11.49841028123588
  C   4.44600124932060      2.98870622126138      9.92244295824713
  H   3.48844174045345      3.25249179733792     10.38631278311762
  H   5.17239845607030      3.77462554655120     10.17103488445711
  C   3.47419114624874      4.03014878112029      7.85129302261080
  H   4.07767720593990      4.94797693985522      7.83428017768441
  H   2.59284980763042      4.21416220037613      8.47667754221061
  C   3.07124471628627      3.62223186382802      6.43616462021562
  H   2.46236029867639      4.40310882965124      5.96044101740296
  H   3.96140140557435      3.46053408195167      5.81561875116634
  C   0.88708064250098      2.44017097627998      6.89006777692219
  H   0.45915532753677      3.38074913582597      6.51799773220578
  H   0.34813146342451      1.61185300417035      6.41040567935374
  Cl  2.59140567162213     -0.96697096681559      7.23595499090206
  Co  3.29649504668254      0.99126726067103      7.93795067405259
  H   4.45827395450262     -0.34094464518129      9.96906822926854
  H   2.35262838402182      1.88659368963293      5.56197346583809
  H   5.13022862600042      2.79185218042328      7.97539623823475
  N   3.97799101466645      0.56502772890973      9.96915282150053
  N   4.22560476716406      2.89837375185711      8.45491270228386
  N   2.32686000412673      2.32317061355889      6.48952461300659
  N   1.69264028097812      1.61085580000704      9.01215879707734
  O   5.18843551644643      0.74969399687606      6.90950873531749
  C   6.05750395534951     -0.39783513983943      7.23896551496209
  H   6.93823629756097     -0.36322768828696      6.59195702719597
  H   6.35943267749120     -0.25884909132372      8.27859936735754
  H   5.50387667356527     -1.33351393769874      7.10968182165016
  H   5.02245550042586      0.70149956955946      5.94392949712965
