66
Coordinates from ORCA-job BOZWAQ-OH_2_1_tpss_d4_lanl2dz_631gpol_Co2.opt
  Co  7.72770704637839      4.49700464142601      5.91130081184468
  C   7.24579146193858      4.07130777596711      3.00646811095659
  H   6.32471594579998      3.60647376005284      3.34540268315194
  O   7.55710715569751      4.59397087440884      7.76110462717506
  N   8.04811474752134      4.56905859403673      3.96628733425324
  C   7.57432057510096      4.14858183619949      1.65148440330776
  H   6.89800693004365      3.73659848721999      0.90730817681936
  N   6.55900612249560      6.02836898420235      5.84241940553707
  C   8.77735494309692      4.76327145931282      1.28353070792188
  H   9.06381271974000      4.83890631907478      0.23731584121236
  N   6.09991794151332      3.55111982062165      5.88640192898330
  C   9.60799235902569      5.28462776092026      2.27925195389283
  H   10.54411446708668      5.76890369794338      2.01577687981948
  C   9.21843547842047      5.17798280072955      3.62039052438220
  C   9.97549733676686      5.69884232036798      4.76575309093086
  C   11.18839813290721      6.39469461431067      4.69791363911095
  H   11.66511837173375      6.58005802117993      3.73947674218984
  C   11.77663660352644      6.85428566769891      5.88253872530631
  H   12.71858787479309      7.39686315874642      5.84618149634450
  C   11.13770212485302      6.61535743569052      7.10619723420704
  H   11.56124303855265      6.96622426600774      8.04347249110201
  C   9.92872199825696      5.91407147608489      7.11477596155418
  H   9.34283997072659      5.68051858368992      8.00266587276500
  N   9.37763002005086      5.46671453937190      5.96972360853042
  C   4.95096322563933      4.26572696174024      5.99358580675399
  C   5.26017860171556      5.68334541815376      5.97200756856479
  C   6.62022366102182      7.40693469681343      5.85622580879919
  C   7.70094937138832      8.30217704591796      5.74927657793434
  H   8.72035032186532      7.95123402317597      5.63638239264764
  C   7.41087575360497      9.66128064794639      5.79753141597471
  H   8.22131522742337     10.38231073011645      5.72094222545131
  C   6.08331018121372     10.13859954467263      5.94507244433818
  H   5.90672886040963     11.21082796997929      5.97854447211242
  C   5.00058574988596      9.26919375740373      6.04633401349222
  H   3.98733097583483      9.64687297373744      6.15529335513036
  C   5.29086410273568      7.89817717253967      5.99997460676467
  N   4.45746973417389      6.78387687138349      6.06847227070320
  C   3.72433290642871      3.59018276864801      6.10376437091441
  H   2.78814494570899      4.13111397336879      6.18216032614558
  C   3.73397441599773      2.19000936691681      6.12677475316844
  H   2.79433443729353      1.65077992257812      6.21903510684093
  C   2.99895049692498      6.81431942616372      6.24438049957244
  H   2.68651610240096      7.85684618666820      6.31835196696880
  H   2.72288118485008      6.29745089615880      7.16945915969447
  H   2.50367697388385      6.35786847146075      5.38063484056087
  N   8.46680640890786      2.71538932497356      5.97609111215400
  C   6.13291924056012      2.19502422916069      5.94264105334216
  C   7.51787501239972      1.75204482980045      5.92391066821332
  C   9.69539884844568      2.07853779080007      5.96304821864751
  C   11.01001048061503      2.57776278006747      6.01135909546088
  H   11.21057966547712      3.64098674633077      6.07952378823785
  C   12.04445044520802      1.64781029503176      5.98911210251863
  H   13.07419445975921      1.99501780149317      6.02971897555415
  C   11.79547666956567      0.25309943865537      5.92417872381897
  H   12.63740670918380     -0.43470928777362      5.91434373843943
  C   10.50083540667558     -0.25906863692237      5.88278428944739
  H   10.32253101743976     -1.33058487749261      5.84645073406322
  C   9.45689065768264      0.67656986038268      5.90180332461078
  N   8.07282025460747      0.50614282663614      5.87353174331923
  C   4.93559812284191      1.47196743087444      6.05510613291494
  H   4.93168155005919      0.38905748637477      6.10917532512478
  C   7.36972965143081     -0.78348380118821      5.81549047351164
  H   8.10217076139950     -1.56107433751344      5.59263596779895
  H   6.89532600422789     -1.00214074128109      6.77854914785127
  H   6.62594253730077     -0.76382482215907      5.01312971380247
  H   7.83538549978396      3.71755994294045      8.10450943733619
