65
Coordinates from ORCA-job BOZWAQ-oxo_2_6_tpss_d4_lanl2dz_631gpol_Co2.opt
  Co  7.98579712754467      4.60062324409345      6.05735960336395
  C   7.28829957341503      4.19373868112026      2.92032460165525
  H   6.42548942028188      3.67708712353152      3.33261850589767
  O   8.19388951173226      4.72253073275209      7.77583540270018
  N   8.15432388324157      4.70202304371203      3.81494960778806
  C   7.46206324149889      4.30725301763376      1.53847518566562
  H   6.73149929095724      3.87782050625234      0.85792539958133
  N   6.53124361598920      6.12011291712805      5.94662150703859
  C   8.59210304747381      4.98230370123719      1.06502254531945
  H   8.76794749860832      5.09458661515130     -0.00226960812859
  N   6.15767996181525      3.55085845778704      5.84409152026258
  C   9.49865947839331      5.51313226903394      1.98651522006702
  H   10.38133474016625      6.03774290879069      1.63330600182992
  C   9.25392763361086      5.35757284353352      3.36024012588469
  C   10.15948261105548      5.88265392145957      4.40736272788089
  C   11.34071505069741      6.58946926936632      4.13269268187757
  H   11.64322326023348      6.78681138271126      3.10883514941763
  C   12.13383546351036      7.04245143283531      5.19076360113265
  H   13.05107867166024      7.59067090686759      4.98780728925756
  C   11.73347173787794      6.78213805133648      6.50805262945159
  H   12.32219151876957      7.11685174339668      7.35801909897188
  C   10.54780337157469      6.07656255527839      6.71602796205945
  H   10.17254927467009      5.84024245594180      7.70874074903580
  N   9.78025254751021      5.63792157774071      5.69121698302252
  C   5.00526670439515      4.25177672362302      5.75107706789792
  C   5.25150576051794      5.68475706702070      5.89803679576470
  C   6.47737996127515      7.47569389593980      6.17335756486699
  C   7.51204046919511      8.42084760687254      6.31832058439421
  H   8.55389484354757      8.11737296026778      6.28328856784901
  C   7.13931854904980      9.74730796422054      6.52416008158988
  H   7.90638054578200     10.50759215189282      6.64866274222722
  C   5.77828423928173     10.13323948032233      6.57893159731434
  H   5.53083509232312     11.18008748787068      6.73693091871054
  C   4.73773531964044      9.20671915095875      6.43263024624642
  H   3.69932259452031      9.52651977164750      6.46121019157062
  C   5.11556855215527      7.87430518469405      6.23940703535254
  N   4.36219653941669      6.71012045808518      6.06716503380023
  C   3.78360120636333      3.58884594957139      5.52979841906867
  H   2.84981878722529      4.12973593827480      5.42851797735312
  C   3.79843504284880      2.19344726755958      5.41719291283961
  H   2.86912807908752      1.65902490781136      5.23512923493230
  C   2.89541966568276      6.64301196328565      6.13484077360362
  H   2.52689510809205      7.60871579605065      6.48471912744554
  H   2.59257045418932      5.87386162737116      6.85210069202141
  H   2.47561362480032      6.43752167121239      5.14389601746693
  N   8.56471735838390      2.58152323152843      5.95321897920128
  C   6.18355294691561      2.20192420129411      5.75490034181971
  C   7.54553665961457      1.69366220056387      5.90509827735332
  C   9.71001281394290      1.85459450026706      6.18014492805315
  C   11.04694704020672      2.27495306220318      6.32363214567904
  H   11.30815028701401      3.32817758560575      6.28633967839779
  C   12.00698568425906      1.28682480267042      6.53042444401531
  H   13.04981022427637      1.56848869558641      6.65327248677182
  C   11.65708353179843     -0.08374660773631      6.58860318417642
  H   12.43805062370989     -0.82321046821736      6.74788707300440
  C   10.33321193057443     -0.51851354117811      6.44403672371359
  H   10.08842604973134     -1.57697485772846      6.47612110525476
  C   9.37067315212138      0.47697160288984      6.24843511408361
  N   7.98547554849962      0.40985667321743      6.07606945822896
  C   4.99664974503771      1.47890378077236      5.53249578652190
  H   4.99558819722563      0.39967663525528      5.43230962158661
  C   7.19111394376210     -0.82499590813745      6.14406481908816
  H   7.84055756448552     -1.62754755189204      6.49753011420169
  H   6.37169612175942     -0.69967724430628      6.85858790797661
  H   6.80578790500313     -1.08735517590247      5.15251973752230
