65
Coordinates from ORCA-job BOZWAQ-oxo_2_4_tpss_d4_lanl2dz_631gpol_Co2.opt
  Co  7.91688222284856      4.55980983006603      6.08193255652733
  C   7.33536427588842      4.21048906184290      3.15604255073972
  H   6.46243349045631      3.68775579704088      3.53232132311401
  O   7.90666900439060      4.55783282216031      7.70883332659265
  N   8.17511246144802      4.70758602801783      4.08482352065906
  C   7.56909367368755      4.35562442398280      1.78808893811122
  H   6.86530104932600      3.93862428738512      1.07293815033077
  N   6.52683348264319      6.13201617204893      5.89926848993678
  C   8.71576467574145      5.04157023653860      1.37022676286997
  H   8.92896145989523      5.17382079840646      0.31216929796057
  N   6.15481468803723      3.55004142043440      5.95946866706014
  C   9.58807989174482      5.55608743843195      2.33224943001901
  H   10.48397008416796      6.08997134304831      2.02893207065098
  C   9.29770744031006      5.37669155886048      3.69147555014658
  C   10.13490337124245      5.86638613680992      4.79405483406308
  C   11.33053768450075      6.58186492540866      4.64715411475235
  H   11.71329559266931      6.82059242259902      3.65898056032147
  C   12.02861878550780      6.98742117086786      5.79002019599151
  H   12.95799063061592      7.54352055887722      5.69143818461507
  C   11.51861885977887      6.67026867876977      7.05514895400634
  H   12.03188729234863      6.96761722181694      7.96556566411529
  C   10.32092760327377      5.95544148549018      7.13757277381045
  H   9.86611705206413      5.67618920663070      8.08486485254826
  N   9.65274989863075      5.56753391682864      6.03388726896936
  C   5.00097366147682      4.26046290112660      5.98907920827961
  C   5.25544819181057      5.69936978952146      5.95363882575815
  C   6.48702460155105      7.50852010908925      5.88542509551836
  C   7.52218369123204      8.46039007492501      5.84537849043897
  H   8.56504576441266      8.15795715279750      5.82650688931746
  C   7.15164259988515      9.80105665634834      5.84387871564973
  H   7.92017725800621     10.57003317099737      5.81763379597564
  C   5.78942854937240     10.19790115712680      5.88049207893366
  H   5.54882110879559     11.25821161553415      5.87904495940628
  C   4.75204085110839      9.26908647092008      5.92259826301890
  H   3.71443840733750      9.59142035260364      5.95360970863514
  C   5.12516799497265      7.91688732424966      5.92564876799103
  N   4.36817737175030      6.74752310297855      5.96898595152864
  C   3.76929317953461      3.58447507221647      6.04003708180068
  H   2.82777293417393      4.11969573715801      6.06048122151876
  C   3.77945492830067      2.18529648670841      6.07101930304829
  H   2.83717471986456      1.64441177037517      6.11760644071760
  C   2.90094656448356      6.70122046319250      6.04251657819419
  H   2.53000106460729      7.72704588042790      6.05563301888092
  H   2.58476974511556      6.20192321937107      6.96433906569574
  H   2.49212349363481      6.19088741472176      5.16399675931841
  N   8.57038211269549      2.57179019739112      5.90708875348952
  C   6.18675281504872      2.19512351362683      5.99455266149738
  C   7.55802236990101      1.68981866603052      5.96165827212737
  C   9.74116273217312      1.84726408825730      5.89064465420264
  C   11.08333613462983      2.26607044917690      5.84762114993205
  H   11.34427090569499      3.32013815602699      5.82781811536216
  C   12.05752974356333      1.27343266233682      5.84308421739467
  H   13.10811046787883      1.55291941076827      5.81420777372353
  C   11.71793759015657     -0.10423201652595      5.87932632068255
  H   12.51477637343661     -0.84397986225852      5.87518740629515
  C   10.39418580001182     -0.53623813668210      5.92370889603833
  H   10.15308444608718     -1.59561249109214      5.95394302994330
  C   9.41115579587741      0.46449321874392      5.93005447516605
  N   8.01939895036817      0.39633852783194      5.97552954730192
  C   4.98286819890162      1.47122382703540      6.04662166167435
  H   4.97154555249564      0.38832582294088      6.07263842111881
  C   7.24378049804900     -0.84984722460014      6.04571081588406
  H   7.94586712305021     -1.68485540502406      6.06019948261275
  H   6.65098527088816     -0.87509650510718      6.96599963763472
  H   6.60020576644761     -0.94840976363081      5.16499645038013
