70
Coordinates from ORCA-job BOZWAQ-CH3OH_2_2_tpss_d4_lanl2dz_631gpol_Co2.opt
  Co  7.87564925030628      4.49828890337707      5.80172015005752
  C   7.15414200305574      4.16361761749652      2.77756984769715
  H   6.27849916048350      3.64342990429472      3.16059689054785
  O   7.97144142387171      4.57771343435976      8.13519403366813
  N   8.00751062231256      4.63718585195267      3.70165158304026
  C   7.36736567373689      4.32175484860038      1.40527196136490
  H   6.65190206365142      3.92307385222123      0.69063698265228
  N   6.67664041893679      6.04007149005580      5.90908769124758
  C   8.51683558254711      5.00054432799150      0.98320567879186
  H   8.71912311681850      5.14395272852946     -0.07560730406125
  N   6.24509927377004      3.56046286008280      5.90105952705380
  C   9.40779638926267      5.49411324986909      1.94085547767723
  H   10.30424835943637      6.02095827289724      1.62642504614013
  C   9.12533784696599      5.29643885081834      3.30068882289114
  C   9.98459187467340      5.76586070271901      4.40452247252167
  C   11.17918960930754      6.47731032869932      4.22130836021570
  H   11.52411940631218      6.71660458876948      3.21986500989231
  C   11.92501359379630      6.87917467251024      5.33249876497078
  H   12.85218429796998      7.43152673099653      5.19822350771187
  C   11.45976639804798      6.56018572727516      6.61455259009575
  H   12.00688032354371      6.85227938805098      7.50694061227545
  C   10.26436922777959      5.85111636642165      6.73849990734551
  H   9.84199938264345      5.57267228637671      7.69946448265925
  N   9.54237856117751      5.46261468679854      5.66217249252531
  C   5.07547358558156      4.26181945419267      5.93347720229376
  C   5.37034901789440      5.68371401922303      5.91239898141042
  C   6.70952293098771      7.42309989900364      5.84512095639337
  C   7.78877962761685      8.32539160211388      5.80981189964392
  H   8.81628500317831      7.97870855407955      5.83280434245804
  C   7.48401564572159      9.68177102592503      5.75037510032722
  H   8.29166128769438     10.40951747899289      5.72288604010248
  C   6.14419536856027     10.14586019079326      5.72814600761812
  H   5.95542069091656     11.21573039720316      5.68431088346864
  C   5.06324330079236      9.26774926057627      5.76346440388105
  H   4.04100646041079      9.63697449750106      5.74889554038903
  C   5.36931779857732      7.90041270546151      5.81922402579847
  N   4.54640609480531      6.77585693269923      5.86167897092798
  C   3.84720641563150      3.58303810809038      5.97615173132920
  H   2.90669189786287      4.12130523885028      6.00993252964960
  C   3.85768828677077      2.18218948287406      5.98045204325896
  H   2.91663670877793      1.63882666867415      6.01547529250841
  C   3.07765582425519      6.79141670060359      5.84345349242643
  H   2.74860035318095      7.82853268672018      5.76384988439397
  H   2.68173783546420      6.36545338322994      6.77168057665304
  H   2.70610338676817      6.23640016013734      4.97559219234218
  N   8.60412911673138      2.69291974770163      5.82709551909245
  C   6.26680312495866      2.19612151380241      5.90145171967608
  C   7.64438121350789      1.74039010997900      5.85265376332752
  C   9.81842202862794      2.03222830258642      5.76396775321024
  C   11.13876386270591      2.51679008333006      5.70983654556259
  H   11.35044331970198      3.58031096407988      5.71199434679761
  C   12.16186649515129      1.57564384073332      5.65532635780921
  H   13.19519613135667      1.91206836050874      5.61339138578753
  C   11.89553080857058      0.18266459702427      5.65432789058059
  H   12.72831671487141     -0.51507741141935      5.61153302714393
  C   10.59570877202903     -0.31555747754093      5.70685785915066
  H   10.40605346033622     -1.38580510580696      5.70463310873282
  C   9.56353344682349      0.63202433330638      5.76051567459473
  N   8.17913911843760      0.48033923015756      5.81807005153195
  C   5.06451113738936      1.47210776469759      5.94103330504229
  H   5.05935237386342      0.38795823721887      5.94352089956380
  C   7.46029714158650     -0.80001713748652      5.83310543895852
  H   8.19666596513508     -1.60492264362847      5.81406941714482
  H   6.86596494441249     -0.88929182949041      6.74869185245660
  H   6.82055207237037     -0.88617303835657      4.94814856495217
  C   7.91528838911603      3.39482215246455      8.97359615579544
  H   8.01223716506705      3.67428646200510     10.02884169976633
  H   6.97960957707806      2.84184385036676      8.81541279966271
  H   8.76603556178475      2.77766111626126      8.67718373182779
  H   7.27451667652934      5.20012385939532      8.42546444557417
