65
Coordinates from ORCA-job BOZWAQ-oxo_2_2_tpss_d4_lanl2dz_631gpol_Co2.opt
  Co  7.74926317141164      4.46802863993249      5.90583995985689
  C   7.20978502294992      4.17034627278704      2.96156064166939
  H   6.31816618096868      3.64814682468312      3.29710679419014
  O   7.66814750055294      4.41142989909104      7.66441167861262
  N   8.02296862670887      4.63546948679528      3.92783174601848
  C   7.49110272636002      4.34564331500096      1.60497394425250
  H   6.80881455457587      3.95464883784542      0.85484513376387
  N   6.57478462510612      6.00399776118635      5.88806424701336
  C   8.65878388344767      5.02873842359910      1.24349630181731
  H   8.90855347031977      5.18373758927077      0.19650587845052
  N   6.11351584667632      3.52636895971718      5.86798159193725
  C   9.50467964586111      5.51151321031240      2.24605408571608
  H   10.41531271407247      6.04376852280601      1.98577890631765
  C   9.16280564329189      5.30061231853748      3.58821087885174
  C   9.95631551894190      5.75167577841147      4.74030400731783
  C   11.16588232168517      6.45430280191563      4.67125368372882
  H   11.59879156891843      6.71190116360484      3.70882140176335
  C   11.81078025870837      6.82188168008466      5.85829948284861
  H   12.75052508644306      7.36820741259670      5.81924942706866
  C   11.23483033648751      6.48065265999999      7.08852609981414
  H   11.70684978758660      6.75027321855617      8.02947598365047
  C   10.02648682757606      5.77813679429497      7.09909878932377
  H   9.49741681858690      5.46612854079864      7.99717470542536
  N   9.41539975789058      5.42932935392586      5.95056129660063
  C   4.96195413009678      4.23850866726501      5.95254395286995
  C   5.26954718692858      5.65767043674662      5.93610141699811
  C   6.63711561527849      7.38372022304791      5.90884394616175
  C   7.72350136623379      8.27739153595700      5.88321822994638
  H   8.74813793585654      7.92566689268651      5.84943182962818
  C   7.43032145602382      9.63664547196494      5.91639384379439
  H   8.24463445402625     10.35731545204841      5.90292574241681
  C   6.09595950330405     10.11377460017881      5.97261119928552
  H   5.91780522666715     11.18594172214090      5.99951574677691
  C   5.00850588177011      9.24469029572800      5.99822669987625
  H   3.99033828427438      9.62205148006823      6.04488284718431
  C   5.30090462634650      7.87360571967378      5.96610065499398
  N   4.46437230661033      6.75872108799924      5.97928661755131
  C   3.73598283881597      3.56375005168554      6.06444803805255
  H   2.79793325817967      4.10328333346939      6.12962052201863
  C   3.75064248571416      2.16385859488409      6.11339444012193
  H   2.81206468849149      1.62288708483744      6.20634028273660
  C   2.99619063139738      6.79072520748743      6.05186805929351
  H   2.67620865863983      7.83259466063789      6.01007405744019
  H   2.65684569653277      6.35168460042471      6.99614870488089
  H   2.56742851085693      6.25587659513543      5.19822754890846
  N   8.48804088088791      2.68328580164910      5.87970960001791
  C   6.15284335167718      2.17295590184887      5.95474957318841
  C   7.53515483555573      1.72738409174605      5.93822988615889
  C   9.71417338615011      2.04762739435402      5.90457700959422
  C   11.03138225602701      2.54129977099133      5.87082618247359
  H   11.23874375242142      3.60411389718898      5.82513332908602
  C   12.06179726325654      1.60800089439676      5.91046072449788
  H   13.09319341552202      1.95233299533817      5.89084454848093
  C   11.80733364684337      0.21446552153127      5.98015164085468
  H   12.64675309334656     -0.47577407043973      6.01128554384309
  C   10.51094193742628     -0.29227950818080      6.01322158360557
  H   10.32883267227366     -1.36227906374162      6.06925701108023
  C   9.46981836663896      0.64620430142422      5.97498496198481
  N   8.08578919521626      0.47987298423799      5.99224907731583
  C   4.95479794881809      1.44980169333934      6.06682177293304
  H   4.95225093637100      0.36773649442656      6.13292868483785
  C   7.37917088996488     -0.80622022917422      6.07851834730163
  H   8.12197560870136     -1.60483722191075      6.05739964570772
  H   6.82047718833554     -0.86600217628963      7.01868550029631
  H   6.71027273739275     -0.92579265255708      5.21993432979487
