64
Coordinates from ORCA-job AQOGET_1_6_tpss_d4_lanl2dz_631gpol_Fe3.opt
  Fe  1.45086663026487      9.59971025566004      6.76293180816749
  Cl  2.62066217683201      9.75412378666682      8.64424442317863
  Cl  0.01379639528277      7.99488535096401      6.16968596079173
  N   1.50406983833447     10.88823338328256      5.10939482012712
  N   3.12319869703811      8.94124951779103      5.53983853845688
  N   -0.05932242513930     11.11167359518335      7.14264743166114
  C   0.58839865475652     11.87166779415735      5.01951329714250
  C   0.50650521066006     12.67203486460229      3.87064530073492
  H   -0.23195630079076     13.46531128016675      3.79747174738627
  C   1.39665042873611     12.42259704371372      2.81791275997635
  H   1.35418784351170     13.02740839111406      1.91511562838736
  C   2.34008505126134     11.39413016618308      2.92816298319608
  H   3.03681513322517     11.19054642865654      2.11999789052485
  C   2.36626767310036     10.63119142647414      4.10601443627260
  C   3.29972927342519      9.51303812955203      4.38564478906279
  C   4.30906195909022      9.09532507579322      3.35624245041447
  H   5.05724249022416      9.88406569853422      3.19527841766386
  H   3.80599658774636      8.91170701077417      2.39644535264736
  H   4.82217763549113      8.18292713065626      3.67076615003161
  C   3.96026357810834      7.91836383184122      6.06228257075113
  C   3.34095030924766      6.68230365938937      6.34228355105591
  H   2.28771389410082      6.55533261942225      6.10515048426546
  C   4.08745358411696      5.64227338481206      6.88957142807141
  H   3.61600479923948      4.68154599097316      7.08333675240192
  C   5.44044530617696      5.85009040903435      7.19549126192095
  H   6.03098288951105      5.04951939879916      7.63622512067336
  C   6.03228120387740      7.09393152949083      6.95163986168013
  H   7.07740064578450      7.24412895060952      7.21708726434716
  C   5.32105100819224      8.16459413540971      6.38402631557507
  C   -0.27768093228372     11.99826866323337      6.21972416247436
  C   -1.28349834169050     13.10884601093926      6.30500930001425
  H   -1.75262278735206     13.13016810579149      7.29178982761906
  H   -2.06482443482347     12.97872156957551      5.54319245519258
  H   -0.79272056372356     14.07393562299310      6.11690026068525
  C   -0.80654778354764     11.04908999028375      8.36028027134673
  C   -2.12270412505771     10.52309047202566      8.39664400309381
  C   -2.75009418977920     10.49448760962382      9.65555965123309
  H   -3.76194705566767     10.09871103746623      9.72342722394442
  C   -2.11660042778142     10.94924838050369     10.81479734273523
  H   -2.63852843689931     10.90533229469219     11.76850514074880
  C   -0.80695045241789     11.45056598091544     10.74996903700740
  H   -0.30273262745542     11.80319957572037     11.64679429195155
  C   -0.14626834371625     11.48783428962057      9.52510433199121
  H   0.87232842278232     11.85878959686609      9.44921302842814
  C   -2.85352795337137      9.98615939879039      7.17345599742280
  H   -2.16860949176212     10.01572868237130      6.31471119222996
  C   -3.26853571131378      8.51115579286376      7.38029231639289
  H   -2.40392179297549      7.88624662890709      7.62883398135513
  H   -3.72425244986222      8.12155886278886      6.46073557426225
  H   -4.00774840065566      8.42043403989033      8.18758372529785
  C   -4.09877944857687     10.84235998179100      6.84419391102356
  H   -4.83640993430252     10.78395746113292      7.65571672084049
  H   -4.57830314151099     10.47156957342243      5.92862303610742
  H   -3.85009002165231     11.90148765815648      6.69956704710866
  C   5.99648042523976      9.52201543024870      6.23112238741731
  H   5.30399535620642     10.21005701612568      5.72638757982249
  C   7.28519222726950      9.43125070261227      5.38388364127718
  H   8.04545304273085      8.82175894562623      5.88959866091510
  H   7.70956728466635     10.43304039451666      5.23596517568535
  H   7.10176864148131      8.98276855132540      4.39864242345624
  C   6.30204560662097     10.12816031609909      7.62105695636810
  H   5.38945639929369     10.21940500081982      8.22101162268924
  H   6.75030481420613     11.12430877832986      7.50543526786170
  H   7.01322645627578      9.49807734422301      8.17162365743339
