64
Coordinates from ORCA-job AQOGET_1_2_tpss_d4_lanl2dz_631gpol_Fe3.opt
  Fe  1.54850855626105      9.90933840332991      6.54859594639121
  Cl  2.98680824696858     11.24582879776835      7.58208368089643
  Cl  0.13446594644623      8.33712725478367      5.88731974208747
  N   1.47824108601569     10.86548758815134      5.02107650539222
  N   3.05313686795066      9.04757285010847      5.64530339156795
  N   0.02088109074992     11.03912893141686      7.07212731189100
  C   0.55271885214968     11.85336367854152      4.94908664519095
  C   0.47787870789401     12.61771808876007      3.77895936942653
  H   -0.25757344153232     13.41210122922594      3.68692013632663
  C   1.36363846705334     12.33366778726318      2.72565428029362
  H   1.31597944648247     12.92037723797831      1.81181069052712
  C   2.30741098143767     11.30573197256157      2.84168696176052
  H   3.00083946431189     11.08972219995366      2.03370809814741
  C   2.35029562958603     10.56286286018806      4.03199800324559
  C   3.25647200416566      9.47726312790488      4.42004789499330
  C   4.26798280620488      8.92764552681462      3.46306174838458
  H   5.05236965778687      9.66832662385499      3.25604974345144
  H   3.77654102830321      8.68347329087468      2.51116166405418
  H   4.73369866613042      8.02558687990406      3.86775542890505
  C   3.86417834776190      8.07402781400657      6.30249390533153
  C   3.20479184206605      6.89696957958790      6.71612534694463
  H   2.15063731544571      6.77497212456932      6.48171264789182
  C   3.91724072676845      5.89742421620085      7.37448470905882
  H   3.41362654681025      4.97983592812712      7.67000604356647
  C   5.27961797813499      6.08691480042534      7.64681891081992
  H   5.84674001216624      5.31683281429260      8.16581669357976
  C   5.91132688201959      7.27344113277681      7.26469521065430
  H   6.96319493847612      7.41475414913867      7.50711450858066
  C   5.23489283163757      8.30540025763174      6.58883595183569
  C   -0.27646236787850     11.93896260439588      6.16498615589351
  C   -1.31823773020352     13.00367191343852      6.31397695863848
  H   -1.70406969502949     13.02224430418873      7.33655313753307
  H   -2.15606117719688     12.83485661147485      5.62375966376534
  H   -0.87873682671601     13.98226588722440      6.07628188856867
  C   -0.69913100950646     10.83011265857234      8.28445307783269
  C   -2.06333233317132     10.43814916878495      8.29489469359052
  C   -2.63989160640650     10.22711295671982      9.56072030859475
  H   -3.68298714257434      9.91966690342026      9.61056110547604
  C   -1.91958718265728     10.38242505012430     10.74809606560437
  H   -2.41134902118526     10.21161375340522     11.70361824406157
  C   -0.56481888100705     10.74250245708092     10.70580570116194
  H   0.00721634873159     10.86155606609536     11.62319938798577
  C   0.05069242890166     10.95088381297062      9.47401005008749
  H   1.09648018960382     11.23991228313074      9.40745338721715
  C   -2.89008196250864     10.15610900152397      7.04666556929056
  H   -2.27613788054974     10.35741710635980      6.15771898294475
  C   -3.29128063654044      8.66324962848870      6.98917344834238
  H   -2.40809224027459      8.01595947531346      7.01600031351724
  H   -3.84261491312833      8.46253150934579      6.06104515212196
  H   -3.94344990297806      8.40065833144969      7.83303780685763
  C   -4.15641624342280     11.04279292703677      6.98987793558733
  H   -4.83962682167151     10.79610974200824      7.81322774862473
  H   -4.69517895575127     10.86888556629749      6.04917200078239
  H   -3.92421145479056     12.11273480598725      7.06403436156171
  C   5.97356390682963      9.60303459385909      6.28497754886167
  H   5.28510667899980     10.29688071286040      5.78275186872395
  C   7.19868632872830      9.36290618791363      5.37219697436000
  H   7.94969315113546      8.74644549771535      5.88359807724583
  H   7.67232226535735     10.32111358171050      5.12139067446661
  H   6.93484336569625      8.85222796547562      4.43748849239535
  C   6.42626783853913     10.28628554726021      7.59706622471625
  H   5.57393160396122     10.47337593194241      8.25907392025785
  H   6.90716070289889     11.24654486416748      7.36880001559144
  H   7.15414969011237      9.66160344611431      8.13222188654099
