66
Coordinates from ORCA-job AQOGET-OH_1_1_tpss_d4_lanl2dz_631gpol_Fe3.opt
  Fe  1.26117446793341      9.88307317888910      6.39061193354567
  Cl  2.71147204528673     11.11569271799461      7.65865457794993
  Cl  -0.00652453673030      8.66767835894887      4.94144693719165
  O   1.03352300379035      8.70208115773671      7.66885396306206
  N   1.46961039261183     11.12431770032918      4.92840932663822
  N   2.89109806524850      9.13975635217004      5.47920411739668
  N   -0.13500795348702     11.20221435607410      6.82220740276948
  C   0.59847594581604     12.14590213371543      4.82715728713326
  C   0.67337829867054     13.02937970078278      3.74034877459714
  H   -0.01981933419030     13.86115481246590      3.65114357965032
  C   1.66829989564131     12.81548318491827      2.77834876786651
  H   1.74982705577525     13.48520445204923      1.92590548352659
  C   2.56502253266971     11.74475931437310      2.91065549471455
  H   3.34415213832167     11.57811758801478      2.17209756450035
  C   2.43611996473909     10.89612515919356      4.01832768855213
  C   3.24380882605126      9.71603355977915      4.36057945861442
  C   4.32021061115442      9.22561512617874      3.44219900217490
  H   5.15312392406805      9.94120890152018      3.40393094339046
  H   3.91282469618930      9.12855718777918      2.42627131334245
  H   4.70101202070383      8.25582876762778      3.77048250805974
  C   3.55719158273800      8.01405363608966      6.04393798053992
  C   2.79044022730882      6.83709643357660      6.16107151412537
  H   1.75834656918682      6.84897417112369      5.82015932438636
  C   3.37547737604396      5.68730956472145      6.68253129481052
  H   2.79570387999936      4.76979467943934      6.75282889405135
  C   4.71263014875986      5.72399437259071      7.11580433488439
  H   5.17512933382398      4.83259359702068      7.53489247857975
  C   5.44596474189800      6.90806842226672      7.02845814779664
  H   6.47130184405414      6.92729896001026      7.39361996080149
  C   4.89831568468326      8.09444496483166      6.50073700987563
  C   -0.31420374813400     12.18340519061688      5.97470296001644
  C   -1.32799352911965     13.27397471840997      6.14306577820499
  H   -1.97920370389450     13.07323061674697      6.99657252403035
  H   -1.93530240023220     13.35750781170147      5.23128040654074
  H   -0.82508371948906     14.23908030064509      6.29980597671357
  C   -0.74120808599059     11.19234045848491      8.12065197322310
  C   -1.77987585043067     10.28904568465199      8.43181869389028
  C   -2.26256001180684     10.32436665028604      9.75049425049926
  H   -3.07447400249684      9.65446553905251     10.02788323318184
  C   -1.73613720584029     11.19818873585245     10.70951615659783
  H   -2.13332326894384     11.18848666175887     11.72265838020084
  C   -0.70751328668408     12.08888024961132     10.36767347193642
  H   -0.29694560844415     12.77291109757282     11.10700200224817
  C   -0.20456468214409     12.08941816877328      9.06784717997360
  H   0.61373239139987     12.74311768829364      8.77716715493127
  C   -2.40205442869807      9.37949396959049      7.38822566811131
  H   -1.83228622365340      9.49282506324213      6.45811496748020
  C   -2.31746444520580      7.89523516858783      7.80029564197269
  H   -1.27439357978330      7.59659839417954      7.95332631158890
  H   -2.74418530531192      7.26850561025823      7.00669791450600
  H   -2.88069699520248      7.70172405343027      8.72405650872521
  C   -3.86151742267147      9.80326212116018      7.10545083957984
  H   -4.49104444433881      9.68051773194365      7.99748515559260
  H   -4.28226649846224      9.18072940748325      6.30525371880689
  H   -3.92235003690384     10.85476743513189      6.79177211823851
  C   5.72765012548326      9.37087357116814      6.51465304764716
  H   5.13948829008674     10.18304162541714      6.06591398757439
  C   7.04597590263360      9.20839503633248      5.72281349435892
  H   7.70207970067244      8.47049925635162      6.20282035246519
  H   7.58540366116085     10.16424478259564      5.69823214129906
  H   6.87812923590412      8.87880242607245      4.68967283323442
  C   6.03809448188525      9.79187145036430      7.97104655016861
  H   5.11539960457918      9.92699160034450      8.54526199542130
  H   6.58917315186899     10.74149205514076      7.97150732008123
  H   6.65977882007011      9.03837775264216      8.47337272250730
  H   1.61192966937775      8.95458940389292      8.43022950392315
