70
Coordinates from ORCA-job AQOGET-CH3OH_1_2_tpss_d4_lanl2dz_631gpol_Fe3.opt
  Fe  1.54667265467799     10.01765185872824      6.37277074294165
  Cl  2.96646139310547     11.53515803999948      7.30675243004567
  Cl  0.06258109441280      8.58167372445248      5.42746913869259
  O   1.48849062377568      8.87875608477759      8.00639403029433
  N   1.48431157385014     11.03622990996008      4.83553094789636
  N   3.04851456242140      9.20891923160858      5.43569792883611
  N   0.00264475162945     11.18370917199842      6.88054613703272
  C   0.54761550165065     12.00757491056441      4.76026407569938
  C   0.48180720847415     12.80176714397031      3.61050872275674
  H   -0.26298733392320     13.58768019668216      3.52116180903271
  C   1.39904224794352     12.56273414041165      2.57238677393647
  H   1.36275361316629     13.17272626479582      1.67322282094215
  C   2.35934616871116     11.55153885522565      2.68733390171658
  H   3.07654975687500     11.36949041397448      1.89181802444798
  C   2.38093461522363     10.78126011530417      3.86121662577707
  C   3.27892736374548      9.68209142151701      4.23364719561572
  C   4.31587918093530      9.16470349549381      3.28587930878058
  H   5.11301574819895      9.90749545913445      3.14263515253065
  H   3.85842098630971      8.96943322329315      2.30648329841205
  H   4.76064931612101      8.24095382807027      3.66461404180905
  C   3.81315664568272      8.15546245376105      6.02876962047178
  C   3.12032244852311      6.95121663708381      6.26214587648489
  H   2.08027108256235      6.87922289435910      5.95395973380539
  C   3.77722647974493      5.88504398792815      6.87316354230361
  H   3.25050108764065      4.94714245022637      7.03576126591595
  C   5.11289404973198      6.03424995957731      7.27516941030211
  H   5.63385256495301      5.21113396348303      7.76036455470942
  C   5.77791132002116      7.24415737656507      7.05966466538247
  H   6.81056385247124      7.34817544299795      7.38872798652202
  C   5.15769196209008      8.34238697962049      6.43260308823667
  C   -0.29935589106850     12.07149228345535      5.97033895916515
  C   -1.37433974821393     13.10597219296670      6.09991519297375
  H   -1.78218107742574     13.11739684457794      7.11391768773698
  H   -2.19050791370510     12.90341782005597      5.39239553433675
  H   -0.96575806802958     14.09842636584173      5.86582112467873
  C   -0.70231733915842     11.03334860702915      8.11629943203412
  C   -2.01872148393031     10.51361726134413      8.17779106214839
  C   -2.56999753177556     10.36182625022991      9.46605572694191
  H   -3.57948138504667      9.96338740094685      9.55325132504085
  C   -1.86934521391489     10.70105033776953     10.62589684109349
  H   -2.33964215694549     10.57134023977409     11.59851639926645
  C   -0.56364832683697     11.20641848867802     10.53464466720260
  H   -0.01196552149355     11.48430617250757     11.43013898090729
  C   0.02579232369461     11.36192272980564      9.28035661881025
  H   1.03180855475032     11.76042293547633      9.16493178334562
  C   -2.82669697931110     10.08867349126725      6.95907750654633
  H   -2.22477682431297     10.26455908536252      6.05778501911088
  C   -3.13324792993188      8.57447618423391      7.01021124573681
  H   -2.20849388843162      7.98969106698607      7.07012091164021
  H   -3.67000272503506      8.27280302169108      6.10150699643368
  H   -3.76540291708843      8.32931186067102      7.87477584974548
  C   -4.14154663416722     10.89516047230618      6.84946974856267
  H   -4.80641698518213     10.67812271118544      7.69618087268722
  H   -4.67367655360259     10.61891027924832      5.92982141937206
  H   -3.96687424451504     11.97870951302159      6.83584622146493
  C   5.92193362242388      9.65035809857673      6.27478654083869
  H   5.26890158982003     10.38419867575800      5.78374057025365
  C   7.19538411793767      9.45954588534806      5.41881137784993
  H   7.91228327204011      8.79956628785698      5.92518988245695
  H   7.68906772241115     10.42717486668375      5.25970139553698
  H   6.97552515296435      9.01794591471552      4.43845786353612
  C   6.29551110070606     10.23344304361395      7.65696332227955
  H   5.39968017543074     10.40992962957399      8.26296875732548
  H   6.81501647889282     11.19207715304693      7.52981779337940
  H   6.96473140421895      9.55412712597056      8.20259029019660
  C   2.48767445198646      8.87982232833231      9.07229806823580
  H   3.44996340222119      8.73923381776827      8.58104294076185
  H   2.46924347084286      9.83060518603586      9.61213967886118
  H   2.26544812028913      8.03488838052797      9.73184299422581
  H   0.59604985776633      8.99873035419300      8.40235854594772
