70
Coordinates from ORCA-job AQOGET-CH3OH_1_4_tpss_d4_lanl2dz_631gpol_Fe3.opt
  Fe  1.37522015435729     10.06365027992767      6.26283674751881
  Cl  2.90049139113788     11.58072358256940      7.37476860461543
  Cl  -0.03144345022651      8.66386416338467      4.93069256923359
  O   1.14455605173555      8.89769417861950      7.90863922418723
  N   1.48486367611508     11.21985643105524      4.75571648772103
  N   2.96247048151327      9.25066680064311      5.35335633620059
  N   -0.10422113443203     11.32476222526630      6.72231553641387
  C   0.58478052879318     12.21835857838960      4.66642610614287
  C   0.61596387174982     13.06336178051108      3.54934734432074
  H   -0.09336219642159     13.87958547266959      3.44272867826415
  C   1.59288013928404     12.83026041252795      2.56779113134464
  H   1.63680472095932     13.47412720228129      1.69280972148104
  C   2.51435412589878     11.78093717458838      2.70006251078539
  H   3.27056009925416     11.60895904322536      1.93906874266722
  C   2.43550074346941     10.96358464058850      3.83815425439023
  C   3.27429423809510      9.80528897171772      4.20669683528205
  C   4.34744434604630      9.31618722610962      3.28359160470750
  H   5.16878996744772     10.04428224970393      3.22529475015698
  H   3.93618172803382      9.19114465132301      2.27247282624771
  H   4.74897737651394      8.36005740269547      3.62816328009814
  C   3.64989811957687      8.14123477962215      5.92282688263548
  C   2.88909658922403      6.96200065092703      6.07019270146400
  H   1.86204086124562      6.95750563671024      5.71253714252336
  C   3.47024748328432      5.83680798814810      6.64918700513544
  H   2.89482340712374      4.91828430286416      6.74211010525604
  C   4.79561830973044      5.90012652077834      7.10771085951662
  H   5.25770876964908      5.02832610710881      7.56685572048790
  C   5.52394075206654      7.08670615255621      6.98655013830505
  H   6.54420266048435      7.12440663511745      7.36489178003960
  C   4.98217155345681      8.24478932648209      6.39676457167122
  C   -0.30556543803385     12.27634094598716      5.84708474409070
  C   -1.31741775958583     13.36983934435714      6.00313618533829
  H   -1.89868517441809     13.23509367840283      6.91865967548569
  H   -1.99716750411070     13.37731252570430      5.13960082662763
  H   -0.81455314802857     14.34682001308497      6.04078072666355
  C   -0.72036799212523     11.27725577474972      8.01596087106129
  C   -1.80614501811794     10.40661797187587      8.27036192392001
  C   -2.24800300318266     10.32852716345584      9.60698960142052
  H   -3.08979604846009      9.67828738928974      9.83891986196862
  C   -1.64844596186117     11.06759803866507     10.63077004240642
  H   -2.01914019116679     10.97818302332138     11.64991670613495
  C   -0.57727637185877     11.92741651255679     10.34391254585742
  H   -0.10846669602137     12.51038394092183     11.13379181274067
  C   -0.10342794020808     12.03063099147117      9.03577415667332
  H   0.75121085223563     12.65489344572073      8.78755139689513
  C   -2.51867792140271      9.63872099521977      7.16631373282900
  H   -1.97330259695159      9.80095586604882      6.22841098850057
  C   -2.50956889526347      8.11892926833111      7.43479394913606
  H   -1.48244041565821      7.73851083168551      7.50790849116159
  H   -2.99654266718282      7.59216654329143      6.60513562515853
  H   -3.04543520626941      7.86791413873090      8.36092409034419
  C   -3.96082854038998     10.16513644716610      6.98994731153592
  H   -4.56303151333105      9.98680136562092      7.89130593861992
  H   -4.44628137857551      9.65044546765638      6.15073147248654
  H   -3.97321727183032     11.24441883378406      6.78522309818118
  C   5.79978971527869      9.52923056884105      6.36590246366933
  H   5.20427226658949     10.31750584081379      5.88616565446638
  C   7.11893360683726      9.34612597811778      5.58129858071857
  H   7.77749205881444      8.62615294124727      6.08509908073564
  H   7.65526040337835     10.30227008317768      5.52298991177091
  H   6.95031648133515      8.98121956359711      4.55990832226486
  C   6.09694173095614     10.00884934843994      7.80530977353091
  H   5.16644730684857     10.17177094211237      8.36036492442772
  H   6.64535577131094     10.95925843579514      7.77564601510038
  H   6.71285807430079      9.27663478461461      8.34553780966604
  C   2.12860354514268      8.80645245392703      8.98687440489509
  H   3.07597823703537      8.55342070020925      8.51092766549162
  H   2.20565089656777      9.76847418860109      9.50214680913751
  H   1.81317331005786      8.00367130491402      9.66138752938156
  H   0.27228503217862      9.13837178037977      8.30041508069141
