36
Coordinates from ORCA-job CBAPFE-OH_0_5_tpss_d4_lanl2dz_631gpol_Fe3.opt
  Fe  3.74458339715205      0.91002479383636     -0.14897768282329
  Cl  1.58351652640535      1.24625443132324      0.38393403551509
  Cl  4.40010272970423      3.03956101311190      0.17933465979353
  O   3.78648904841452      1.31002613201672     -2.18186171077736
  O   4.61253015217402      0.46508480335504      1.67776452424749
  O   3.46881799344657     -0.82377061815210     -0.47033638389097
  N   5.73342774963445      0.49953584984296     -0.66531913731720
  C   4.91091202113304      1.09381691284279     -2.75399472633281
  C   5.02453626767973      1.34716314207122     -4.20205996862206
  C   3.95941906059812      2.00875202441441     -4.84911172566283
  C   4.02586034705114      2.27269538155635     -6.21752762359025
  C   5.15048208472063      1.87530797481844     -6.95671496216692
  C   6.21000211660668      1.21079322304447     -6.32201060071033
  C   6.15101646379836      0.94807776358411     -4.95147063717859
  C   6.01241185471755      0.64329463253955     -1.95502579782973
  C   6.50642524352499      0.13903844584818      0.35184942154483
  C   5.84893434205417      0.13780510365248      1.62538330346427
  C   6.54423817200420     -0.19208164094794      2.88292384169668
  C   7.82705955230771     -0.77817616058108      2.90306277864783
  C   8.44445951392346     -1.07110703843420      4.12123725844493
  C   7.79188347704453     -0.77992372113227      5.32802693136201
  C   6.51429507693723     -0.19969514508151      5.31480876663393
  C   5.89037018293468      0.09009830567315      4.10093426837720
  H   3.09875829565189      2.30996317901501     -4.25708561011046
  H   3.20354614026209      2.78858669211592     -6.70995208839068
  H   5.20101808515984      2.08118272404394     -8.02473448331528
  H   7.07975368350053      0.89598970636416     -6.89589651955328
  H   6.97309740494248      0.41785763329124     -4.47523203155583
  H   7.01535201166025      0.47059523117963     -2.34121732391996
  H   7.56243770006297     -0.08454280547396      0.21109743163274
  H   8.33685747536240     -1.02514954101787      1.97412179377472
  H   9.43220590992505     -1.52848528988074      4.13068510600792
  H   8.27742656093455     -1.00633613426441      6.27596762636551
  H   6.00783597423527      0.02645599053133      6.25138297996163
  H   4.90188769934153      0.54157802805840      4.06768206209054
  H   2.51267968499308     -0.99357102316499     -0.30639777581291
