34
Coordinates from ORCA-job CBAPFE_0_6_tpss_d4_lanl2dz_631gpol_Fe3.opt
  Fe  3.96608665092129      1.56695495874727     -0.07957474977130
  Cl  1.86275355728647      0.82563883524200      0.20846515248514
  Cl  4.40669964605351      3.75160735679031      0.28970187669873
  O   3.95447686328301      1.63369269198208     -2.10366244551493
  O   4.74660174661712      0.83447781045572      1.63978794305255
  N   5.81221086970027      0.62235138427681     -0.67217962902697
  C   4.99746909768302      1.23179738801452     -2.74129789587930
  C   5.02751752545006      1.38245836145115     -4.20340619865102
  C   3.91337320180793      1.97762075872531     -4.83481066837130
  C   3.89768760418625      2.14269316476193     -6.21963672806999
  C   4.99049855126887      1.71752076887677     -6.99072770846526
  C   6.10174971214841      1.12558031199185     -6.37166993744053
  C   6.12330501113620      0.95755883268839     -4.98605888763203
  C   6.06538027257761      0.65685929234139     -1.97768324138018
  C   6.55155264928742      0.15830290552572      0.33158417153847
  C   5.91422918623675      0.29449330090446      1.60803561080070
  C   6.51644460210910     -0.15172933863887      2.87282867627251
  C   7.78309740271609     -0.77325531928656      2.92993276838397
  C   8.30974522738227     -1.17946777331709      4.15723656839800
  C   7.58157203118900     -0.97099314655499      5.33820891452300
  C   6.32195462839356     -0.35402098166676      5.28966780335367
  C   5.79041764490972      0.05409773972050      4.06640257853158
  H   3.07933505611402      2.30056110610361     -4.21688922206338
  H   3.03641366919403      2.60277158223265     -6.70036295398547
  H   4.97749781064656      1.84738904330122     -8.07169415211577
  H   6.94953561190920      0.79695028934987     -6.96993084769073
  H   6.99222802819341      0.49767108726752     -4.52023164889135
  H   6.99430171485881      0.27579292415516     -2.39916057490527
  H   7.53488938472398     -0.28167002422571      0.17292643281297
  H   8.35918746192952     -0.94270763395510      2.02271997818191
  H   9.28661170498952     -1.65788436091039      4.19517520490876
  H   7.99564571140235     -1.28899068490137      6.29368903352817
  H   5.75789319599435     -0.19215288770572      6.20636319472063
  H   4.81723696770008      0.53453025625631      4.00465158166405
