34
Coordinates from ORCA-job CBAPFE_0_2_tpss_d4_lanl2dz_631gpol_Fe3.opt
  Fe  4.25673395535600      1.37169956005896     -0.17981492997682
  Cl  2.16941315646309      1.76829613169581      0.35205861979959
  Cl  5.30588878109218      3.34373789043730      0.04551211167934
  O   3.97244482767790      1.40014626887510     -2.05153370476242
  O   4.71526520122529      0.60693810191989      1.48766640727754
  N   5.93535924062521      0.62440783058668     -0.69943581650876
  C   5.05475883705058      1.15863456808198     -2.74004210741550
  C   5.00408612596918      1.34381438881479     -4.19108173098578
  C   3.81403675556466      1.84342827290331     -4.76512345750112
  C   3.73150777027104      2.03692984218082     -6.14394539340114
  C   4.82964701840582      1.73516976993665     -6.96430001545315
  C   6.01544025312304      1.23882183980514     -6.40122761821217
  C   6.10557700622310      1.04286858470184     -5.02274469641727
  C   6.18691949254755      0.70097640517134     -2.01372664530062
  C   6.68076414846946      0.18655846081569      0.32574889604519
  C   5.95841221166988      0.21268884975892      1.54847300665893
  C   6.48582301890672     -0.19515603300516      2.85114504496462
  C   7.80241019357410     -0.68250792678878      3.00711559952731
  C   8.26616110300093     -1.05292285942961      4.26981046002474
  C   7.42475607939502     -0.94302929739468      5.38765745100350
  C   6.11566900331504     -0.45891329560747      5.24014789599701
  C   5.64507439183170     -0.08627329646056      3.98122361503431
  H   2.97778039715515      2.07354336081646     -4.11010489071267
  H   2.81405637785095      2.42526353306850     -6.58201448857093
  H   4.76347351735062      1.88768642439423     -8.04033239932553
  H   6.86696085814470      1.00615961776245     -7.03792032170867
  H   7.02962383086919      0.65722554042321     -4.59726702554320
  H   7.14815713363107      0.41497350075167     -2.43211915355703
  H   7.70109655103844     -0.16042241133937      0.18687943114667
  H   8.46365893107422     -0.77062953863963      2.14773169090221
  H   9.28189229849750     -1.42647099106306      4.38547954068720
  H   7.79049834385546     -1.23211743731868      6.37157919580697
  H   5.46561215503105     -0.37075966939432      6.10842807353665
  H   4.63664103374401      0.29573401348056      3.84447735526099
