30
Coordinates from ORCA-job BICCEW_0_6_tpss_d4_lanl2dz_631gpol_Fe3.opt
  Fe  6.22408594432737      4.62816733632832      4.87727952265570
  Cl  4.57557796013550      3.14325253571389      4.37061740977351
  Cl  6.59900228652023      6.17692739154545      3.25557774112181
  O   7.82607943553246      3.57189588501571      4.92796134510407
  N   6.80547047811397      4.75662569544829      6.96952445609058
  N   4.77451309296964      5.94330472734586      5.85585595758728
  C   7.94478157997062      4.02550562183383      7.24741767900397
  C   8.45940894168547      3.39394495373209      6.06619837730986
  C   9.63122159362006      2.60545756622417      6.18082051024488
  C   10.24088769016979      2.46927376906528      7.42040509219132
  C   9.73628727265817      3.09472363325354      8.59637186796751
  C   8.58406601213150      3.87199352401420      8.49434518744779
  C   10.44797640246753      2.90974547044954      9.91780267923907
  C   6.06466301315842      5.45730851737551      7.78180693626877
  C   4.91951370212433      6.13217994363830      7.19565475415991
  C   4.01706836348081      6.92278162606726      7.92600886023765
  C   2.94995370820830      7.52059779706110      7.25020987138290
  C   2.81107975776117      7.31680802856725      5.87120906593743
  C   3.75115188745728      6.51694797083727      5.20850310306893
  H   10.02754752584026      2.12228359194120      5.29137734122530
  H   11.14207681375624      1.86116050481113      7.50187072183945
  H   8.18037336352138      4.36077965683807      9.38114191700993
  H   6.26909006095255      5.55051677973363      8.85156489125923
  H   4.15717563504565      7.05869147492677      8.99648226303684
  H   2.23570113123146      8.13747585524207      7.79191437721490
  H   1.99376327333325      7.76546995144696      5.31292855501736
  H   3.70173651635814      6.32293370225370      4.13991339361598
  H   9.94162069579102      3.45580592897690     10.72317443952032
  H   10.48893598847957      1.84804488670846     10.20188054100535
  H   11.48558987319745      3.27039567360403      9.86388114246203
