36
Coordinates from ORCA-job BICCEW-CH3OH_0_2_tpss_d4_lanl2dz_631gpol_Fe3.opt
  Fe  6.46305692163555      4.87986895876851      5.29492404148273
  Cl  5.30020508312069      2.96373504085578      5.60245123217154
  Cl  5.91745493982479      4.97704890829634      3.09893317448533
  O   8.15335291533020      4.09350672567855      5.09216389936265
  O   7.44507766959899      6.69281733077785      5.10370032172655
  N   6.84254099293000      4.79279145312559      7.16509354307714
  N   4.92608233296647      5.94228463554581      5.95433965340297
  C   7.95821556617549      4.01555891284783      7.44883236297856
  C   8.62429576668641      3.63718257598653      6.24395407049482
  C   9.77626573092371      2.82305613554194      6.34302087174543
  C   10.21550061074649      2.42356522139726      7.59950243657412
  C   9.55224274417737      2.79688298182314      8.80242008239897
  C   8.41661248612982      3.59946683958772      8.71331648807883
  C   10.07137334790362      2.31226780289507     10.13830911838653
  C   5.97200091696221      5.34612830410527      7.98112934856759
  C   4.87458004624851      6.01139748202797      7.32572417596473
  C   3.82287479070066      6.67552053545395      7.97827971908382
  C   2.81843691092173      7.26674585372984      7.21055331912794
  C   2.88409165738129      7.18358101357120      5.81298950587650
  C   3.95742731551297      6.51076408825931      5.21889083150708
  H   10.28732014301528      2.51689658240179      5.43355488113639
  H   11.09938799691682      1.78910088103695      7.67055047501170
  H   7.87965274939342      3.88868826477945      9.61647780285931
  H   6.04865486286571      5.27756787835371      9.06542283163375
  H   3.80301890021574      6.71341295471605      9.06515118116228
  H   1.99090926035919      7.78115485632512      7.69515780839348
  H   2.11372852305617      7.62214880464596      5.18420637428423
  H   4.06560650008557      6.38807187658792      4.14375235306478
  H   9.46857036205005      2.70686460552713     10.96566037606886
  H   10.04807233076524      1.21433339728898     10.19885094264546
  H   11.11376038780723      2.62370231184636     10.29990693168928
  C   8.33448379490648      6.86985205393057      3.95085456655103
  H   8.91334037200788      7.78675183359207      4.11341488340009
  H   8.97697491443837      5.99042542954028      3.84721376389377
  H   7.67750140231474      6.95959432754105      3.08714282428021
  H   8.01722875392471      6.66995314161089      5.89899380743116
