31
Coordinates from ORCA-job BICCEW-oxo_0_2_tpss_d4_lanl2dz_631gpol_Fe3.opt
  Fe  6.52234150857129      5.14537048406445      5.16723635698351
  Cl  5.09341274279173      3.27289154348063      5.59210446300673
  Cl  5.94371094111747      5.17160851517789      2.98598145558115
  O   7.88608963029152      3.91977012952286      4.92378472835277
  O   7.36949552836164      6.53610402534422      5.16020509993728
  N   6.88239505851765      4.96053772579460      7.05797612537594
  N   4.93758600961819      6.12035213420788      5.83464280216311
  C   7.99670439585625      4.17491032778948      7.28443017688423
  C   8.48068738561549      3.61103308167494      6.05395816139258
  C   9.58260241830334      2.71694841923392      6.10179300667858
  C   10.17946672293929      2.45350698515875      7.32385557524217
  C   9.71047143011104      3.02204156418205      8.54522950326492
  C   8.60649634163596      3.87893986163115      8.51241921219434
  C   10.40264208556014      2.68786627253647      9.84515170679453
  C   6.07312245726972      5.60484412853237      7.85374445176236
  C   4.95242315556412      6.25032769466714      7.19919138616523
  C   3.90625970165794      6.89785255211759      7.87087556450652
  C   2.83986046233977      7.40884692335556      7.12512701290157
  C   2.84309853365138      7.25722191657447      5.73450948216210
  C   3.91594409158421      6.59945182585574      5.11680404381156
  H   9.93973070536745      2.27575762336284      5.17522580061123
  H   11.03620662887903      1.78135810573506      7.36097242285007
  H   8.22144675391580      4.30811428879690      9.43647616233081
  H   6.17682697629438      5.60381882152079      8.93900237390352
  H   3.93071591624153      6.97874758913802      8.95513553472180
  H   2.01568142291878      7.91352636174810      7.62442853090858
  H   2.03307937901798      7.64470544434730      5.12246160319761
  H   3.98878740109917      6.43912154230239      4.04364792365127
  H   9.88459482319268      3.13550500979143     10.70159135374109
  H   10.44576017220423      1.60037615324633      9.99996391212104
  H   11.43955921951054      3.05554294910850      9.84367406680150
