50
Coordinates from ORCA-job ETOHEB_1_5_tpss_d4_lanl2dz_631gpol_Fe2.opt
  Fe  4.24307877113252      5.78692928795586      6.20051652490815
  N   2.34370526421057      5.59677603699567      7.50579219874268
  N   4.48394063410567      7.26319421785360      7.76121924135846
  N   2.82391174169691      6.85708242417956      5.03122465097283
  N   3.68474349483545      3.76265759838740      5.85209578955915
  C   2.69343573552633      6.07040063474587      8.86765216013395
  H   3.23578680516882      5.25627490938764      9.36934762724444
  H   1.79548776886451      6.28881046666032      9.46797508843387
  C   3.60570318446964      7.27585745975934      8.79459283034252
  C   3.59206964087360      8.29718366823496      9.74664581593521
  H   2.86436563974107      8.27662406430585     10.55538795632290
  C   4.52790066061321      9.33400642419426      9.64175307929075
  H   4.53822757872730     10.14148502013101     10.37065684165512
  C   5.44490786070655      9.31241069563927      8.58468807889620
  H   6.19020902483355     10.09465216069768      8.46625901812921
  C   5.38968010539159      8.26375199386594      7.66468159663740
  H   6.07179095888673      8.20005100596297      6.82194361326583
  C   1.29819149730513      6.45825018105604      6.86712034355116
  H   0.66954349407624      6.92372261857249      7.64124132848131
  H   0.65338062203719      5.80725639320592      6.26489950916698
  C   1.89114188442878      7.53262544133345      5.94244848408373
  H   1.06548157612230      8.03471560627013      5.42101492334051
  H   2.44220619423235      8.28692722537720      6.51796456556825
  C   2.83707815935767      7.11734786282991      3.76004085892621
  C   3.74504345633728      6.32923889608583      2.85749163247552
  H   4.56344207259800      6.96739942698593      2.49201030081092
  H   3.18292312966306      5.99263827041475      1.97441504702485
  H   4.17983839127410      5.46873668442670      3.37457333156510
  C   1.97754660704301      8.17930632237259      3.10328976399436
  H   0.93275396434531      7.84144154227644      3.02668215778356
  H   2.33457501003620      8.38216559208015      2.08843709340581
  H   1.98598945163164      9.11826943913476      3.67028388375692
  C   1.94290297614869      4.16280136149278      7.48727599156967
  H   0.87938870319496      4.03512756556658      7.74387191498938
  H   2.54138128344027      3.63591571503486      8.23986833682992
  C   2.24839553939656      3.56060077984965      6.11151137483117
  H   1.95461862692381      2.50366705697774      6.10704652332796
  H   1.67834753646757      4.07607589788328      5.32439044350043
  C   4.38812284005661      2.82434103203447      5.28914788520002
  C   5.86722778731978      3.00256228058122      5.10008550560593
  H   6.23542583147556      3.93360138608136      5.53842661859706
  H   6.10852776153182      2.99884061802919      4.02635486005976
  H   6.39309552469470      2.14229611928482      5.54055608282592
  C   3.79921668445315      1.51567309428659      4.79999540238051
  H   3.52211402891663      0.87318104307366      5.64940319175603
  H   4.53122031110775      0.96982159137236      4.19641604409601
  H   2.89725204700504      1.67780291081992      4.19603440682061
  N   5.86755392003734      6.24713655747056      5.27785819374852
  C   6.58965244823899      6.89793468248976      4.56083239021046
  S   7.54177576931783      7.76763073629058      3.59687949788558
