50
Coordinates from ORCA-job ETOHEB_1_3_tpss_d4_lanl2dz_631gpol_Fe2.opt
  Fe  4.11813372529680      5.93790249752345      6.15766164085592
  N   2.54945293662802      5.56960220985092      7.59548539414092
  N   4.38113814893648      7.56436093575237      7.22943387348496
  N   2.65663014542657      6.87905383214344      5.17427714058925
  N   3.72625716600102      4.13654394927731      5.46788974753250
  C   3.13726356836749      6.17712300017374      8.81255324712011
  H   3.90101635346408      5.48188759088943      9.18584894018474
  H   2.38599107843175      6.32656371119707      9.60448777323625
  C   3.82120469079890      7.49032757334154      8.46993435197717
  C   3.92471558496529      8.54950724524756      9.37325605864685
  H   3.45839110950542      8.46850770679089     10.35276195943351
  C   4.63597694005290      9.69870025204538      9.00710974634614
  H   4.73245651274023     10.52994354851337      9.70166989921271
  C   5.21820757785474      9.75985773418514      7.73574387540783
  H   5.78069827731551     10.63130146843319      7.41128411492074
  C   5.06519821268134      8.67346140335420      6.87379830459552
  H   5.49367278533321      8.66547132124005      5.87498947311025
  C   1.30425652048240      6.23426984088709      7.13181368376154
  H   0.74560907343496      6.65427103478221      7.98158496531877
  H   0.66957480130852      5.47201497092664      6.66672950528518
  C   1.60050937871572      7.33675018947156      6.09915514986882
  H   0.67308142796530      7.59882612050767      5.57661017046626
  H   1.97360209250549      8.24270909591123      6.59372442343696
  C   2.59155356579557      7.14815779334947      3.90444612941828
  C   3.73723657873959      6.73467767875644      3.02363281122499
  H   4.10241186895642      7.59800430137877      2.44888121541182
  H   3.40755703898343      5.98079722966192      2.29343364598356
  H   4.56553488329141      6.32274804948925      3.61160589496517
  C   1.44124007405178      7.88110398770469      3.24631450778918
  H   0.47883354401862      7.39022897179819      3.44610607033107
  H   1.58489533517138      7.91879070461262      2.16186907706711
  H   1.36979703121159      8.91437488897739      3.61558927643222
  C   2.46785258875846      4.08641754813687      7.58314310760546
  H   1.55396505751301      3.71855290998706      8.07687301286122
  H   3.33896255986673      3.69744732573552      8.12206056362509
  C   2.51500246335491      3.59417415118177      6.12654852123488
  H   2.49874292549604      2.49921289589705      6.12209745243033
  H   1.63720098618631      3.94932098365008      5.56719027498325
  C   4.47496540789624      3.36902050310366      4.73227230784317
  C   5.75796668293005      3.90039544035107      4.15902839501956
  H   5.99107056024437      4.90419770832344      4.52897973268514
  H   5.70815181913865      3.90466597577442      3.05971805888284
  H   6.58109352427898      3.22910628191084      4.44237431577697
  C   4.15715754171419      1.91939472427787      4.43294828254369
  H   4.37000277253015      1.30275674814311      5.31926875957356
  H   4.79137058872462      1.55576131524580      3.61810580733512
  H   3.10802187989987      1.76762780148991      4.15128630239819
  N   5.61039175849181      5.17068367670134      7.05085130811365
  C   5.99199922457124      4.11331324443071      7.48800000288386
  S   6.48828362997202      2.69330992748463      8.07987172664694
