26
Coordinates from ORCA-job AMCOAC10-oxo_2_1_tpss_d4_lanl2dz_631gpol_Co3.opt
  Co  2.92653350518480      2.26054456057532     -0.28579484014109
  C   3.22327054340461     -0.67941981211432     -0.71473757372504
  C   2.87425361868907     -2.09104501165681     -0.31018566469347
  N   2.65819281818047      0.37983976544530      0.00274089188533
  N   0.94724505812546      2.60302368303019     -0.15530732603863
  N   2.75021431719113      2.00903825358433     -2.24448162644474
  N   4.87528010308601      1.96958134078502     -0.51469180003238
  N   3.20769964576295      2.56361125022449      1.68528449814860
  O   3.15013365239872      3.93410527862467     -0.52220399127633
  O   3.99496801668703     -0.41508230051571     -1.66348382799479
  H   0.58367510034198      2.72788912122723      0.79805282066910
  H   0.74870792971921      3.48305976023424     -0.65323237024277
  H   0.38559100824666      1.85470932851874     -0.58182539464312
  H   4.98432721730401      1.11223376359358     -1.08966014683896
  H   5.31619617697689      2.77412210307198     -0.97972716601732
  H   5.37587955289768      1.81985032989256      0.36912204169796
  H   3.70894677439117      1.79016301987951      2.14118018092095
  H   3.76697524770212      3.42226803683394      1.79253921694398
  H   2.35063469293031      2.71408702478627      2.23265539823058
  H   1.79054259360266     -2.25945367086532     -0.38504511966426
  H   3.39719125621285     -2.78846997131538     -0.96963296424428
  H   3.17061788013058     -2.28059950443669      0.73126182962236
  H   1.78037897633911      1.90286383526490     -2.56421743734627
  H   3.15040498180421      2.80699532192079     -2.75554013930240
  H   3.26079952793326      1.13533277568702     -2.47752650194106
  H   2.03733980475701      0.05865171772412      0.75685701246803
