27
Coordinates from ORCA-job AMCOAC10-OH_2_2_tpss_d4_lanl2dz_631gpol_Co3.opt
  Co  2.89377690702528      2.23569777693917     -0.30614629912483
  C   3.22932936632296     -0.67251517909073     -0.71434926489608
  C   2.88531700213325     -2.07807575161014     -0.27724586592839
  N   2.65182661005079      0.39095206265246     -0.00746745077154
  N   0.91317599452943      2.56211078063147     -0.18248518506985
  N   2.73275456481043      1.98408265018577     -2.25545022115948
  N   4.83568660549164      1.98181914119039     -0.55086184078738
  N   3.17891444137575      2.56016471470457      1.65843553355245
  O   3.21274909873441      3.98017660372863     -0.68881594420792
  O   3.99354453483227     -0.42698786602752     -1.66879355301588
  H   0.54167576934388      2.78102976697417      0.75090657743689
  H   0.66110715935231      3.35928430255387     -0.78318999311152
  H   0.37822526259781      1.74911584517333     -0.51529737722858
  H   4.98055786127228      1.14097892823826     -1.13855502389182
  H   5.20358560143936      2.82521867846858     -1.01158428162086
  H   5.36491310512405      1.84688396024664      0.31843540572405
  H   3.62366666315159      1.75150234024369      2.11245097991575
  H   3.80872499676277      3.36497362521826      1.78289150692535
  H   2.33866416058527      2.76750025886833      2.21362796518337
  H   1.81206021970549     -2.27234459602973     -0.41522902659202
  H   3.45982987032213     -2.78343684436132     -0.88328674118643
  H   3.12031871839068     -2.22881140859603      0.78538459010519
  H   1.77375267446604      1.85563088890244     -2.59866044772794
  H   3.11627941313028      2.82366451976192     -2.71044761012722
  H   3.27302513059212      1.13818779187969     -2.51421327894742
  H   2.03289880828439      0.07983986130971      0.75233724344305
  H   2.74515946017329      4.63771714784412     -0.12619039689092
