31
Coordinates from ORCA-job AMCOAC10-CH3OH_2_1_tpss_d4_lanl2dz_631gpol_Co3.opt
  Co  2.92852871499604      2.13043528764343     -0.27271335111586
  C   3.20988685426134     -0.74902951382318     -0.68059869647278
  C   2.82954344621907     -2.16832290615689     -0.27772882432647
  N   2.65883287396599      0.26952438473337      0.04058861290638
  N   0.95772292169110      2.42154419367746     -0.14706738754270
  N   2.71868994769845      1.80202873285316     -2.20313894006547
  N   4.85639775420747      1.77314327635578     -0.49278117261707
  N   3.22576762332225      2.37525989509402      1.69171520881636
  O   3.07647740219463      4.15378404464070     -0.64583432571474
  O   4.00340533318638     -0.53565076467539     -1.63610132517730
  H   0.56797621640749      2.63934845186503      0.77913938175036
  H   0.66093623579286      3.18593291292413     -0.76878160363712
  H   0.47032402240000      1.57082782482089     -0.45800797833848
  H   4.88098079639867      0.86960751454887     -1.02830178113358
  H   5.38275516957099      2.48081375566297     -1.01785043909040
  H   5.36661972370802      1.61402276687010      0.38325223892592
  H   3.51914441653057      1.46546564846640      2.07325007802989
  H   3.97317605631050      3.04485412619795      1.91688140020145
  H   2.41462379456635      2.66388890274183      2.25406959076965
  H   1.74917226440077     -2.32877529028395     -0.38694412954524
  H   3.36736095164354     -2.85897838189871     -0.93240150099840
  H   3.10377797839302     -2.36605114842736      0.76633877927749
  H   1.75114269308606      1.65095170532973     -2.50961657511022
  H   3.10208941683386      2.54179895569913     -2.80289333436342
  H   3.23840231431005      0.90906443045173     -2.37724960397185
  H   2.00446664984851     -0.01457737388984      0.77511463814723
  C   4.18608617610270      4.88614109567366     -1.28558358092967
  H   3.81840686399425      5.87398530337986     -1.57651839392636
  H   5.03660065903807      4.97392180973217     -0.60104551972660
  H   4.45794608813947      4.32242448034299     -2.18045401374055
  H   2.73536864078144      4.71965587944991      0.07711254871954
