26
Coordinates from ORCA-job AMCOAC10-oxo_2_3_tpss_d4_lanl2dz_631gpol_Co3.opt
  Co  2.92950343366299      2.28359960553569     -0.28875315617047
  C   3.22754249388804     -0.64527057215932     -0.71824129274244
  C   2.87656017986693     -2.05958929547531     -0.31490342750365
  N   2.66152921562820      0.40295474371204     -0.00096683551529
  N   0.94222297609000      2.59435420938683     -0.15868874464645
  N   2.75021244209621      2.00260267723344     -2.24280665293451
  N   4.87464520125648      1.96568086970089     -0.51425556386873
  N   3.21152276493028      2.55274028792067      1.68968841505119
  O   3.14553161806147      3.94646297057064     -0.51621029405947
  O   4.00397038290823     -0.38990412493072     -1.66871120738271
  H   0.58962825037694      2.76639046243573      0.79153080142162
  H   0.69967064208569      3.43332448842563     -0.70517263560555
  H   0.40740130468432      1.79773650893872     -0.52880442435471
  H   4.95635600708729      1.09271080052626     -1.07664930757973
  H   5.33190979066942      2.75118909616755     -0.99553934459700
  H   5.37094127782382      1.81922898703115      0.37237145628749
  H   3.65750188070727      1.73574781623008      2.12698378066982
  H   3.81918698379450      3.37239702248119      1.83149693311194
  H   2.35619915831068      2.74147843658741      2.22800622289985
  H   1.79346962545439     -2.22833616274152     -0.39264195310720
  H   3.40129913127147     -2.75363138841398     -0.97661282895401
  H   3.17314133329141     -2.25171211105090      0.72561542247011
  H   1.77922101656952      1.89273678328331     -2.55740707579075
  H   3.15735710564428      2.78325788554986     -2.77449182084703
  H   3.25882405009821      1.11592931619913     -2.44551780998581
  H   2.04065173374193      0.08582068685549      0.75308134373348
