26
Coordinates from ORCA-job AMCOAC10-oxo_2_5_tpss_d4_lanl2dz_631gpol_Co3.opt
  Co  2.92893997678614      2.29051798698420     -0.33516049014309
  C   3.16544042412372     -0.75704409070557     -0.64196508513153
  C   2.93769238930259     -2.15338103728341     -0.13888141059606
  N   2.61426955167880      0.35545189644925     -0.02733639915041
  N   0.79240539365834      2.61408457860016     -0.09465182338390
  N   2.71345749731453      2.11443879011276     -2.46257365329878
  N   5.04090430563337      1.92987313060535     -0.58308219012921
  N   3.26407932719238      2.54424376704596      1.80003871922847
  O   3.14339170453616      3.89327050228141     -0.52994914748114
  O   3.80479083375512     -0.51470721660755     -1.69648839190601
  H   0.40747362712821      2.46828188795955      0.84643510854300
  H   0.62434339202379      3.60323566699864     -0.31858291231194
  H   0.20186088644825      2.06585001700770     -0.73145580563607
  H   5.22197041723514      1.18450963739241     -1.26509465366509
  H   5.49252125727757      2.78612597520156     -0.92585743516712
  H   5.53085148039420      1.66590346887795      0.27914853338535
  H   3.63274686750322      1.72684549030500      2.29940953009491
  H   3.94658225330762      3.30383087478381      1.91287791526887
  H   2.42682380003855      2.84949629866681      2.30997593921318
  H   2.08547664255931     -2.59907210975828     -0.67435583001406
  H   3.82013621929680     -2.76581783951440     -0.35609413938837
  H   2.72819185970664     -2.16141209950393      0.93773954881862
  H   1.74699208755349      2.14195741735812     -2.80711594005846
  H   3.20299389476143      2.89300658954452     -2.92016344712594
  H   3.13232107983039      1.23628331500617     -2.79410731266463
  H   1.80934283095411      0.09212710219175      0.55969077269942
