25
Coordinates from ORCA-job AMCOAC10_2_3_tpss_d4_lanl2dz_631gpol_Co3.opt
  Co  2.88553703128834      2.14316279996271     -0.23696463804958
  C   3.20376766067574     -0.77155263246944     -0.68834283629766
  C   2.91682624222308     -2.21701520899346     -0.36540680502864
  N   2.60215222229609      0.23451954482644      0.07140641771620
  N   0.95527616071083      2.73343019415383     -0.13639972679626
  N   2.74741765132652      2.01246546926697     -2.22128214275171
  N   4.85475968166776      1.98390529489887     -0.51315017920858
  N   3.18481982561383      2.67831214158572      1.68506537703044
  O   3.97039376969615     -0.43054400838023     -1.62192856657136
  H   0.56237108867411      2.79818511666028      0.81114754455414
  H   0.79740982022618      3.65733614072465     -0.56467427384523
  H   0.34662961837174      2.07237262877534     -0.63643086132101
  H   4.93789115951231      1.07836487407574     -1.02246485435920
  H   5.29098704791108      2.72015015323084     -1.08477406958332
  H   5.42398769115005      1.90613531657856      0.33844538658807
  H   3.81130062888150      2.01325040824512      2.15683456638860
  H   3.61936371123489      3.60782942035828      1.78044740416416
  H   2.33709586749196      2.70720931461285      2.26557091032102
  H   1.84065563053734     -2.42427480518659     -0.45298764376617
  H   3.46982391785120     -2.85904708320465     -1.05534206103514
  H   3.21419069412467     -2.44620321188168      0.66791248823045
  H   1.79587050794502      1.95153992910353     -2.60342759401243
  H   3.22635036842636      2.75132902369358     -2.75407936814764
  H   3.21715538005453      1.10379488916328     -2.42197285757976
  H   1.99656662210869     -0.14955570980055      0.80979838336062
