27
Coordinates from ORCA-job AMCOAC10-OH_2_6_tpss_d4_lanl2dz_631gpol_Co3.opt
  Co  2.90902030532666      2.42846435024807     -0.36772203284569
  C   3.14887736573194     -0.80777000447150     -0.61416287480545
  C   3.03507490923800     -2.18784109459827     -0.04036011772627
  N   2.54296910887238      0.30734224155293     -0.04400079439460
  N   0.69763963087672      2.60438691599859     -0.18818912453726
  N   2.68184700959171      2.13201341366113     -2.51590141354884
  N   5.01383972117639      1.95032499021077     -0.64927745691874
  N   3.22392389818833      2.42190807867383      1.83464935365096
  O   3.10820217594408      4.18256312497107     -0.46740333097955
  O   3.73359865175140     -0.55485589037718     -1.69467180553189
  H   0.31782209599994      2.62470512570719      0.76551046606635
  H   0.44507081117281      3.51009953410695     -0.60159483429280
  H   0.14884228607692      1.90089486803123     -0.69612175554343
  H   5.15565085496283      1.15294828194678     -1.27989596533016
  H   5.48042149037899      2.76038769184616     -1.07473216951579
  H   5.53837991408241      1.74103443391300      0.20730977725926
  H   3.62889657776492      1.56749615926205      2.23275797454694
  H   3.87716787482447      3.18314512315908      2.05471553885056
  H   2.37777726194904      2.61848728897968      2.38143638860800
  H   2.13017370332829     -2.67383676979055     -0.43736746131528
  H   3.89814210587651     -2.78855173490348     -0.34654277106223
  H   2.96177528508037     -2.15708826059844      1.05417366752539
  H   1.72032553678733      2.15395056908840     -2.87325508536912
  H   3.18328182317263      2.87597402018538     -3.01606982252926
  H   3.08576813857438      1.23550861518618     -2.81221543491508
  H   1.70560986374881      0.03080192045827      0.49374950810755
  H   3.01142159952158      5.14186700755262     -0.27861842345356
