31
Coordinates from ORCA-job AMCOAC10-CH3OH_2_3_tpss_d4_lanl2dz_631gpol_Co3.opt
  Co  2.94402321078491      2.06282888106966     -0.27311947841734
  C   3.19493003354881     -0.81751986239631     -0.69137395139384
  C   2.78737217823775     -2.21478991707516     -0.26627887793052
  N   2.66224197151809      0.25740980195107      0.01929716564500
  N   0.96917381324152      2.39883760351114     -0.06583634368718
  N   2.72114899464667      1.85615256665455     -2.48387568417360
  N   4.88269992394997      1.73348474512783     -0.56647332352499
  N   3.28608190314304      2.49834286645316      1.96772571237370
  O   3.11997387315348      4.09846729369269     -0.52543740419490
  O   3.97948312352384     -0.62276853051779     -1.63888636913626
  H   0.61530820436274      2.43019796150476      0.89776802905145
  H   0.74732416327187      3.30509533436482     -0.49868625576284
  H   0.41424276224586      1.68814156146913     -0.55761230347491
  H   4.92336540916456      0.85724361338579     -1.12720495047938
  H   5.35527141581422      2.48034131577101     -1.08670797504371
  H   5.41271041146607      1.57466285262671      0.29742898620406
  H   3.45728856971529      1.58669189486545      2.41011679378739
  H   4.12868293374497      3.05107734771714      2.17101921875526
  H   2.54578833438740      2.92943454761564      2.53647344666700
  H   2.47016324784253     -2.76648605222188     -1.15947560461669
  H   3.67603306009387     -2.72312486125967      0.13213989568050
  H   1.99189756370358     -2.23749281999530      0.48516825906396
  H   1.75929123424699      1.82226355267875     -2.84047879293577
  H   3.21395417854869      2.50449055028030     -3.10782102194730
  H   3.12802453406327      0.92165183491400     -2.65323076222642
  H   1.99984194447778     -0.01795302840129      0.75309625373742
  C   4.06607367282710      4.88236220704456     -1.33842458843876
  H   3.64111095617607      5.87766219429147     -1.49563996643561
  H   5.03632545379230      4.94943795385831     -0.83437675032094
  H   4.15326419539690      4.36543120071776     -2.29450467644376
  H   2.96951872890964      4.58546539030158      0.31106131961900
