25
Coordinates from ORCA-job AMCOAC10_2_5_tpss_d4_lanl2dz_631gpol_Co3.opt
  Co  2.94390390665571      1.81286811249305     -0.30604685756080
  C   3.03381510495945     -0.87778413225750     -0.49251975858625
  C   2.87318077463529     -2.35862021986342     -0.33713603890417
  N   2.41079519806049      0.04956723836744      0.33442857116943
  N   0.91944196111903      2.68069267084319     -0.17398838080360
  N   2.69553378658665      2.10367779445205     -2.42643396571128
  N   5.08161230966844      2.02134666092134     -0.48006084355544
  N   3.22814663047815      2.71749052257190      1.68082142991866
  O   3.74083848673093     -0.32925874232044     -1.37649553425452
  H   0.49744449966827      2.64449885498385      0.76126836619610
  H   0.86681637344358      3.66502022243311     -0.46775580154542
  H   0.26680507464548      2.16952318557441     -0.78098969594878
  H   5.38947702209811      1.28765532261629     -1.13144081162418
  H   5.41062553983841      2.91543310713153     -0.86830197985756
  H   5.63113804213378      1.87564413682878      0.37545514178330
  H   3.93441052215343      2.19863876668782      2.21738368752348
  H   3.55676888302955      3.69178738711685      1.65123380155414
  H   2.39162252338048      2.72302025315275      2.27599984056327
  H   1.81095910517224     -2.63487210031253     -0.40718121664303
  H   3.44185716830331     -2.87758326074798     -1.11296744691448
  H   3.22805522123517     -2.67427763670354      0.65510883289990
  H   1.74061151780446      2.03965993804262     -2.79885303628625
  H   3.07617580265922      2.98409676981240     -2.79843022529699
  H   3.21901375325667      1.34295435267903     -2.87898397718592
  H   1.81955079228364     -0.31607920450305      1.09288589907038
