46
Coordinates from ORCA-job CABPEA_2_2_tpss_d4_lanl2dz_631gpol_Mn2.opt
  Mn  0.21620444081794      0.16978575210796     -0.20205960502525
  N   0.79068420937922      1.14791140945651      1.47345030787147
  N   1.96400412122782      2.23041846663002      2.99985331500061
  N   1.36627983459912     -1.38310980621940      0.38909714739739
  N   2.44138688515768     -2.85872160267786      1.63516544830147
  N   1.63060298977330      1.15687471785320     -1.33942429088895
  N   3.44970400343222      1.59062817414074     -2.51479033963781
  C   1.97307369218612      1.70968781529565      1.74441031157464
  C   0.72640943604216      1.99280350914930      3.56811703059978
  C   0.00529705095428      1.32031816110674      2.61090068137822
  C   1.69437718161205     -1.72625824524366      1.64309147187035
  C   2.61712121758827     -3.26529814223538      0.32537013028754
  C   1.93980831643258     -2.34775504208885     -0.43983306480789
  C   2.87458165245112      0.75014264338313     -1.61596878697481
  C   2.54064150505751      2.58151257322363     -2.83509358864099
  C   1.41407193923540      2.30064458639595     -2.10022173520594
  H   2.81759870716187      1.75907500737579      1.07334980004380
  H   2.73475029174869      2.72508848264381      3.44081672238995
  H   0.47835577752733      2.31887532308691      4.56848062962587
  H   -1.01609353229335      0.96651383614078      2.65070452663619
  H   1.40539021187107     -1.19833854041060      2.54047192648961
  H   2.80060866014116     -3.33470768792027      2.45862429824487
  H   3.19039122171190     -4.14477431558006      0.06748598322798
  H   1.82377976207233     -2.30461136774412     -1.51356169837261
  H   3.36330289833491     -0.12194212955844     -1.20450804969091
  H   4.38920824062551      1.50139762009697     -2.89325555701717
  H   2.77465444836372      3.37340463559752     -3.53285589680058
  H   0.47712659263133      2.83730831503302     -2.05372996157795
  N   -0.54233697160012     -0.93851247565162     -1.69447592089409
  N   -1.51194861529616     -2.56658132688490     -2.83136423409884
  N   -1.28809092068415      1.51004833074656     -0.39708789843948
  N   -3.25333492335117      2.40464585044639     -0.85886206005686
  C   -1.04888080605935     -2.17739865424462     -1.61577254422606
  C   -1.28879025444826     -1.54507842721980     -3.73692916129439
  C   -0.68967137221120     -0.53817805865672     -3.02024455608816
  C   -2.50334694305939      1.28014270966258     -0.91612168792941
  C   -2.49841648417663      3.41319306116139     -0.28210657265755
  C   -1.28345494704305      2.84532297391112      0.00386829046051
  H   -1.08534088583989     -2.79514102378951     -0.72937076040176
  H   -1.94114681276314     -3.46418085014426     -3.04008850954997
  H   -1.56397177978130     -1.63020489538263     -4.77883324254894
  H   -0.34624245706870      0.43066502727264     -3.35429972197910
  H   -2.84912234615570      0.34459268710774     -1.33027669536506
  H   -4.21436949927062      2.49144059893923     -1.17968867579702
  H   -2.88951824572428      4.40992535627485     -0.13375453163633
  H   -0.41353749131021      3.28752496741254      0.46672132620365
