47
Coordinates from ORCA-job CABPEA-oxo_2_2_tpss_d4_lanl2dz_631gpol_Mn2.opt
  Mn  -0.00785381127703      0.02234594127200      0.03575752424847
  N   0.72356137941590      1.10153430893866      1.57728352093828
  N   1.82595412708482      2.50382311108594      2.86756888732347
  N   1.42780630748645     -1.36839421607396      0.30140214656468
  N   2.83683131789468     -2.68558442726201      1.36008196001677
  N   1.43623051616015      1.04367991269766     -1.25350134118568
  N   3.24048691872945      1.49959765055162     -2.44911030119667
  C   1.69713533314385      2.01819510599253      1.60755180582167
  C   0.90117096972013      1.87676128252420      3.68403347843521
  C   0.21845049854387      1.00474308926328      2.87187960681675
  C   2.08302972425220     -1.56563571024080      1.45103843320533
  C   2.66338923584546     -3.23985694280336      0.10456996618913
  C   1.77860336416846     -2.41591976568493     -0.54474185704298
  C   2.60708460998390      0.56780689556472     -1.69335334067273
  C   2.45253248366889      2.63512329613837     -2.49853145566518
  C   1.33694200310660      2.33954815400868     -1.75337883102187
  H   2.29225032676249      2.34608010450042      0.76920016295868
  H   2.49176268427846      3.21461802606750      3.15976913430337
  H   0.81369021947400      2.10456152998440      4.73722817171613
  H   -0.59267098493405      0.32607987032941      3.09480749391437
  H   2.00918001064875     -0.95345929137085      2.33705325004269
  H   3.41770166185506     -3.06559283390479      2.10341563868926
  H   3.16655900138401     -4.14662169898366     -0.20037405819754
  H   1.37289541875934     -2.50156356886995     -1.54166777726185
  H   3.01171665980010     -0.41258408502927     -1.48818328285409
  H   4.14296068678436      1.38008873239620     -2.90283849112494
  H   2.74844086029113      3.51936635668224     -3.04581204826293
  H   0.48547910575269      2.96600142883397     -1.53368733972899
  N   -0.68976528097562     -1.02736719156284     -1.55044552813264
  N   -1.88121984466303     -2.53365602415627     -2.62327894591035
  N   -1.25627280513967      1.52884510668771     -0.43555138784936
  N   -2.77598365613695      2.73808735919642     -1.46806753580578
  O   -1.07107644286622     -0.71432551926193      0.99049752813768
  C   -1.62690094227545     -1.97160585176285     -1.41683306095614
  C   -1.08002983361411     -1.93004032168649     -3.57583978917950
  C   -0.33936060192155     -0.99186915167352     -2.89625620787281
  C   -1.96800253882132      1.65686967988240     -1.56232518708854
  C   -2.59265157219625      3.32587857066672     -0.22866637046633
  C   -1.64389071790758      2.56486295736251      0.40574647213744
  H   -2.10516297547151     -2.24119000590650     -0.48596227587714
  H   -2.55438902592352     -3.27654800786361     -2.79460473504210
  H   -1.10897495119491     -2.21421517615666     -4.61857870040598
  H   0.40255922202731     -0.30215832673595     -3.27106628676695
  H   -1.91029907329671      1.01603849183964     -2.42877456398308
  H   -3.42593620057579      3.05127943763243     -2.18462868476943
  H   -3.14603548294054      4.20054867556319      0.08270128156009
  H   -1.23912790489075      2.67082304132733      1.40007292130213
