48
Coordinates from ORCA-job CABPEA-OH_2_1_tpss_d4_lanl2dz_631gpol_Mn2.opt
  Mn  0.07251332508821      0.05517284804396     -0.04031109625467
  N   0.77905350935767      1.15097152028017      1.52310636009743
  N   1.84071562942793      2.58940750248375      2.81439923358443
  N   1.42149584682697     -1.40976682834279      0.36526765425246
  N   2.93301084751962     -2.63733036614915      1.40294124796689
  N   1.46908028064175      0.99636955688388     -1.27052264472605
  N   3.28960248943273      1.40185842271227     -2.45027778442228
  C   1.71842689497528      2.10158496254184      1.55298696885849
  C   0.94281791478627      1.92985189435012      3.63303391271577
  C   0.28722166134304      1.03641336557373      2.82112644585169
  C   2.19621551539147     -1.50173195165887      1.45471158366069
  C   2.62755403976136     -3.31307879641184      0.23491292772214
  C   1.68575931342317     -2.54309975557333     -0.40127232380590
  C   2.63780218534239      0.49197788292423     -1.68541629103842
  C   2.51745766801585      2.54770017603391     -2.53034203256539
  C   1.38852158919592      2.28317922315582     -1.79443965091605
  H   2.29848753106851      2.45370710095500      0.71345227507003
  H   2.47695449651835      3.32825454644595      3.10211052810056
  H   0.85044984167814      2.15318366850869      4.68675859535314
  H   -0.50972886914459      0.34142703158289      3.04382518704626
  H   2.23076917007648     -0.79457861268942      2.27004912952391
  H   3.58859966090798     -2.94829139484315      2.11560037407371
  H   3.08936541811854     -4.25592222814729     -0.02294836444175
  H   1.17914848833785     -2.72165815366488     -1.33808013913287
  H   3.01879284142210     -0.49391005237218     -1.46120193599103
  H   4.19494535415783      1.26290121649651     -2.89255964386978
  H   2.83345923943651      3.41751964885071     -3.08930135962289
  H   0.53845009123202      2.91811434561066     -1.59416717382080
  N   -0.63142139649733     -0.97116421366904     -1.64012226216268
  N   -2.04146131731879     -2.21750173072821     -2.78596903124124
  N   -1.29129882601923      1.48088453019195     -0.42950695528195
  N   -2.86078873996253      2.66453722427364     -1.42498070113583
  O   -1.14257656439657     -0.73396231512803      1.02611314694743
  C   -1.75536491814465     -1.69296454936131     -1.56816550960780
  C   -1.06829870487391     -1.81867067934262     -3.68275053527903
  C   -0.19616829939684     -1.03974022397160     -2.95903313567926
  C   -1.90921441705758      1.71602523492222     -1.59448385628913
  C   -2.87053433138689      3.05017411735393     -0.09490238141963
  C   -1.88947182065239      2.30811678031867      0.51209513028702
  H   -2.34971967406602     -1.81885356358842     -0.67453264933316
  H   -2.83805473012363     -2.81332569918131     -2.99644509790701
  H   -1.08159413484297     -2.11746951510922     -4.72163502837451
  H   0.69658333273139     -0.53088088376809     -3.29075323272563
  H   -1.69024336217797      1.23890975152117     -2.53870534916003
  H   -3.47356275691651      3.02349842183043     -2.15217994621889
  H   -3.56021419956261      3.79086831428180      0.28439972531835
  H   -1.58860915516908      2.29402320116763      1.54836730617539
  H   -0.78662795850525     -1.56667097559485      1.40546837981788
