52
Coordinates from ORCA-job CABPEA-CH3OH_2_2_tpss_d4_lanl2dz_631gpol_Mn2.opt
  Mn  0.25684211523061      0.14445108201893     -0.15373476869523
  N   0.87801937595102      1.21600343701914      1.45736514414091
  N   1.72799733059012      2.86592385820711      2.66458493044162
  N   1.54148834983661     -1.38157550958583      0.24951516876916
  N   3.12860931319006     -2.58554628436599      1.21912150890339
  N   1.59645245549490      1.06090711956967     -1.36865589084250
  N   3.45843217304725      1.47077382228352     -2.49163931452985
  C   1.51857495424767      2.38940199977356      1.40868214467662
  C   1.20229921268046      1.96547022106377      3.57040518498177
  C   0.67941647315210      0.94624881532572      2.81060847565793
  C   2.44502158981622     -1.41067305233845      1.23853471372406
  C   2.64868503955571     -3.35406298664525      0.17507548048225
  C   1.66834235754761     -2.59795274794104     -0.41941435802782
  C   2.80505905462964      0.58581516678159     -1.69333378205724
  C   2.63959671006697      2.56553969961514     -2.69548631228801
  C   1.48898042441141      2.30075712540877     -1.99307530168454
  H   1.82478464529139      2.90364872350765      0.50951866767824
  H   2.19819936632665      3.73679240740488      2.89611186265673
  H   1.24973370589078      2.12519704527013      4.63859717644365
  H   0.19212588273843      0.04186353720032      3.14524476127949
  H   2.62742220120994     -0.62331282976239      1.95474535748428
  H   3.86356648404064     -2.85386046374107      1.86769213878398
  H   3.03601794141178     -4.34023358616592     -0.03988583805879
  H   1.05339153402361     -2.83634124174253     -1.27401572424278
  H   3.21650704225322     -0.36273391218837     -1.38247854493094
  H   4.39207817770031      1.34651766628287     -2.87351508219407
  H   2.94113659950435      3.40498621084511     -3.30635396340322
  H   0.59866146804671      2.90333424682189     -1.89292443672634
  N   -0.47709514526769     -0.90983838608933     -1.73541043274319
  N   -1.88538007455295     -2.07675159059811     -2.98472766821506
  N   -1.14291874453665      1.58271861382669     -0.46961969602373
  N   -2.78230559627830      2.72814327138964     -1.41857690877823
  O   -1.20044824707273     -0.76801732820559      1.02691028121130
  C   -1.66291099111012     -1.53120638681680     -1.75851388561656
  C   -0.79897879966778     -1.79754345274514     -3.79110770529973
  C   0.06527295895469     -1.07074737203906     -3.00693816838832
  C   -1.81532807705529      1.79235711305528     -1.60827286759862
  C   -2.74526077203758      3.13736551284270     -0.09898666035288
  C   -1.72498895990629      2.42133789203417      0.47890634433614
  H   -2.35897378060960     -1.58382266552841     -0.93512727679096
  H   -2.70819351112730     -2.60786685107067     -3.25571859799615
  H   -0.74078345674483     -2.13309233375393     -4.81712571329865
  H   1.02940857335135     -0.65828400945913     -3.26310516191871
  H   -1.62370354742024      1.30515268843665     -2.55336132998501
  H   -3.42526807294531      3.06814353282340     -2.12849503629035
  H   -3.42609210533275      3.87978762429202      0.29335444654868
  H   -1.36066558299569      2.46380798935792      1.49584557604310
  C   -1.10564814392216     -2.05892821868468      1.69757760678306
  H   -0.38338940130770     -2.01973720586890      2.52130191126497
  H   -2.09567683234099     -2.34677756359070      2.06588024943799
  H   -0.75907155647145     -2.76331546956989      0.94056774944452
  H   -1.68626211148885     -0.13198497396109      1.59074354580362
