52
Coordinates from ORCA-job CABPEA-CH3OH_2_4_tpss_d4_lanl2dz_631gpol_Mn2.opt
  Mn  0.25354594636314      0.14542540963342     -0.17706086285389
  N   0.90981869742351      1.19818512333365      1.44397793842817
  N   1.80321589019210      2.79410942202407      2.68619772064286
  N   1.56286655967706     -1.37906370769334      0.23896601646146
  N   3.16755642541789     -2.56645215518879      1.18695006605610
  N   1.77481889053549      1.20753301766064     -1.53490560631184
  N   3.62885133604889      1.64719186351369     -2.66190372619255
  C   1.62922763820336      2.32588689737217      1.42087540594431
  C   1.16837527979196      1.93778733521783      3.56468996777918
  C   0.61764526023638      0.94987082019396      2.78279956296897
  C   2.47688679809075     -1.40050168117538      1.21779149408149
  C   2.68390806254894     -3.33912925445347      0.14475770267613
  C   1.69015439366790     -2.59126914500670     -0.43588200073315
  C   2.98865397108106      0.75737875243003     -1.85624473647926
  C   2.78953434952303      2.72715099430810     -2.86972678212246
  C   1.64404389748407      2.43825290598161     -2.16514673111044
  H   2.01685721025535      2.80932620322319      0.53612207545885
  H   2.31652141186674      3.63371578115123      2.93980795453149
  H   1.16722883092952      2.10325766266703      4.63301727990090
  H   0.03693951127386      0.08828795153270      3.07597293379821
  H   2.64938578564654     -0.61779900660090      1.94140440955986
  H   3.91035297435851     -2.83147180152508      1.82844811855133
  H   3.08094988452552     -4.31997277238689     -0.07636223778286
  H   1.06665828113270     -2.83075327906243     -1.28392820431652
  H   3.41975148696507     -0.18196165169042     -1.53817903923358
  H   4.56271786587913      1.53833553800084     -3.04900198982856
  H   3.07904440653525      3.56961433195122     -3.48255103786175
  H   0.73985553085931      3.02385046690304     -2.06757645706000
  N   -0.52917656264358     -0.91569595521946     -1.73041431675911
  N   -1.87818035668670     -2.18475422081263     -2.93749578705962
  N   -1.20828155550118      1.54359233449772     -0.45443095614369
  N   -2.74591087793837      2.79887900387314     -1.42330917713609
  O   -1.41674604195964     -0.97569223659588      1.25321121570313
  C   -1.65464197387729     -1.63891822636509     -1.71165017658843
  C   -0.85894682235536     -1.79460481512320     -3.78511702528230
  C   -0.02657206873634     -1.00657591993248     -3.02592914303275
  C   -1.84255632954636      1.80339160293825     -1.60453601485162
  C   -2.70692913528141      3.19534492969900     -0.09787778094540
  C   -1.74463529408910      2.41312363247873      0.49143137995628
  H   -2.29193503031678     -1.77398235474997     -0.85102590002763
  H   -2.66097831344229     -2.78406095958344     -3.18380988381194
  H   -0.81830079136605     -2.10583190152903     -4.81957424585192
  H   0.88606083780268     -0.50344331471041     -3.30906827388262
  H   -1.66762766130499      1.30794300496887     -2.54877746935292
  H   -3.35302243399923      3.18536594763488     -2.14120570968819
  H   -3.34875796754669      3.97490728636060      0.28796558327333
  H   -1.39845117181927      2.41506056914934      1.51527614314528
  C   -1.36123170961655     -2.21803695353716      2.00398201676175
  H   -1.11052552698375     -2.03450253993295      3.05719033688540
  H   -2.31641040617301     -2.75338041217093      1.94053346454284
  H   -0.57281997119547     -2.81134501777138      1.53617478379670
  H   -2.14600941193634     -0.42532950588154      1.60243770139708
