52
Coordinates from ORCA-job CABPEA-CH3OH_2_6_tpss_d4_lanl2dz_631gpol_Mn2.opt
  Mn  0.25316620196798      0.13893547873128     -0.17546697494602
  N   0.98877898336308      1.26844327235196      1.63622121621199
  N   2.01703229091997      2.80100804651386      2.85536538561177
  N   1.64298716729553     -1.53969309297053      0.30108451685500
  N   3.15892707453949     -2.79271131287186      1.31095514954569
  N   1.72835432226103      1.18192468780595     -1.47900423862431
  N   3.50380705560941      1.57624326695005     -2.73435666134499
  C   1.89616118106762      2.24713777706966      1.62050880369669
  C   1.14686474925004      2.15146911035495      3.71331082980001
  C   0.51596832891745      1.20471681109668      2.94155248801025
  C   2.41753743108048     -1.65696178056960      1.38264792020769
  C   2.85428720811152     -3.44029943927653      0.12599303935277
  C   1.91212086676806     -2.65135143435113     -0.48936661737843
  C   2.90166909898719      0.69669063333460     -1.89234258627683
  C   2.68358294596124      2.68332309560733     -2.87140477685623
  C   1.58479775835457      2.42328110227777     -2.08733580045757
  H   2.45662967596748      2.57406750623688      0.75592293661580
  H   2.64072348701188      3.56324983958892      3.10777146443279
  H   1.06367567418707      2.41760195833918      4.75791962187528
  H   -0.24151083960089      0.48971170704547      3.22931498692488
  H   2.45763540306966     -0.96035407314742      2.20838874709372
  H   3.82310506336900     -3.11505155617132      2.01000629177558
  H   3.32190262633082     -4.37384494912911     -0.15447971277730
  H   1.41049630897198     -2.79835239065171     -1.43559996284325
  H   3.32366097993690     -0.25907642585262     -1.61331583155536
  H   4.40486174510669      1.44567929289199     -3.18687859821262
  H   2.95321938800279      3.52321621036892     -3.49647714071784
  H   0.70776364744912      3.03230036541553     -1.91557118262494
  N   -0.56210219050938     -0.99726862840341     -1.94145492748183
  N   -1.69614577253268     -2.46058590275321     -3.15119426558031
  N   -1.38792373961535      1.64184014941276     -0.40851102061132
  N   -2.99602738847753      2.84817179931056     -1.32921317287558
  O   -1.34495025030681     -0.93265854218501      1.10999599719161
  C   -1.47882798184579     -1.96683231171909     -1.90433101656634
  C   -0.88328593567422     -1.77691813795486     -4.03927336924247
  C   -0.18579641038796     -0.87297779265416     -3.27370419159364
  C   -2.19712843910825      1.75896152012250     -1.46567279094937
  C   -2.69403612082896      3.46569124462358     -0.12769315282287
  C   -1.69332132973200      2.70807893812876      0.43083161718370
  H   -1.98702438806813     -2.31694936501668     -1.01752094893292
  H   -2.34466151014587     -3.20558676541514     -3.39233136243950
  H   -0.88030573321684     -1.99426439378443     -5.09832524187778
  H   0.55085514250671     -0.14404320003361     -3.58128399301132
  H   -2.22112306638170      1.09526044382541     -2.31860689353456
  H   -3.70144395528873      3.15542098295108     -1.99377640416075
  H   -3.20737089865844      4.35731762245559      0.20430386519968
  H   -1.17524738407046      2.84818340564451      1.36915852797390
  C   -1.32668321138232     -2.06550774785102      2.02097437131225
  H   -1.21415031120504     -1.73331194398058      3.06048746879530
  H   -2.24568518424390     -2.65379486173346      1.91575711031121
  H   -0.46280005344400     -2.66436714943315      1.72753480439170
  H   -2.13023971163955     -0.37692307054609      1.28577567592703
