43
Coordinates from ORCA-job BERROF-oxo_2_2_tpss_d4_lanl2dz_631gpol_Fe3.opt
  Fe  -6.59601829135974      7.90498278423728      2.86712710478869
  Cl  -8.78058312833375      8.36777788189315      3.46234905269728
  O   -6.63283609275722      6.46791858258108      3.64595181693530
  S   -6.65248456609120      8.27252424876007      5.83814106987159
  S   -3.79127846967264      7.02195500329362      3.28065612018609
  S   -8.36379973597307      6.26761645451238      1.10356034392601
  S   -7.13276505715843     10.95877711310988      2.75795912670784
  O   -5.97567595001325      8.79529024422894      4.48197989621611
  O   -4.79172839708867      7.76500779297431      2.29349789084907
  O   -7.12799160853706      7.29180936154984      1.17197090485495
  O   -6.47823299956988      9.70117958626962      2.08721155625749
  C   -7.47024734973520      9.75700879034147      6.48954083452078
  C   -5.21486431991391      8.20080585645032      6.94468900724690
  C   -2.21725885268363      7.75610238071544      2.76152682164692
  C   -3.63194757243275      5.35389957268661      2.57629721260103
  C   -9.61941256940906      7.20125496338060      0.18060184621955
  C   -7.77658519032960      5.15500944483804     -0.20615967186874
  C   -5.90356353005448     12.25078739061719      2.41066169227478
  C   -8.44315903291485     11.46889369396009      1.60453838004587
  H   -8.30781646794703      9.97567021906377      5.82092926578336
  H   -6.75786847584311     10.58803418075913      6.52714179100900
  H   -7.84789990071977      9.51639249135826      7.49152630143085
  H   -4.59831017178967      7.35605677489237      6.62262925250225
  H   -5.58089347511429      8.01990467882494      7.96324951604818
  H   -4.65428113696415      9.14034658726699      6.89251623258293
  H   -1.40482239964102      7.21335955804530      3.26048527625934
  H   -2.22343536553556      8.80117789677118      3.08690031415103
  H   -2.12691844971692      7.68951313095326      1.67197474884950
  H   -2.82182188708054      4.83427605071726      3.10380961073801
  H   -3.42264551037188      5.42782347403415      1.50381150055146
  H   -4.57996112399521      4.83898875876838      2.76295075714438
  H   -10.42024353089421      6.50136488413096     -0.09024274947847
  H   -9.16449348654422      7.64656572024294     -0.71054758878814
  H   -10.00978918801925      7.96528413060349      0.85856488151741
  H   -7.42965234096289      5.74139181090260     -1.06339207277402
  H   -8.60930837565075      4.49765968347690     -0.48623025384201
  H   -6.96318496382150      4.55565601055333      0.21427508239565
  H   -8.03834958712288     11.49836345464637      0.58709704730320
  H   -9.24790347536885     10.73337711570256      1.69135866367900
  H   -8.80583096071422     12.45708751586638      1.91378786131757
  H   -5.01541936384156     12.02215683522660      3.00793205924125
  H   -6.31981794544810     13.21817621972087      2.71710044674137
  H   -5.66069970286352     12.24797167107142      1.34257104965913
