42
Coordinates from ORCA-job BERROF_2_6_tpss_d4_lanl2dz_631gpol_Fe3.opt
  Fe  -6.21470422803832      8.19896185717882      2.78778734623802
  Cl  -6.53833300940799      6.17724448799943      4.00169006084777
  S   -6.57474000674267      8.66677948106663      5.93522486251861
  S   -3.51110967439273      6.57467359686047      2.98871348670384
  S   -7.96505666182740      6.17702324449596      1.10074656744933
  S   -6.68204530675361     11.34109072372322      2.39305072285047
  O   -6.52655909115828      9.24500909700965      4.45481315830459
  O   -4.40006176349843      7.71491388124129      2.32596669663568
  O   -7.59686930992955      7.66576942657397      1.50489838953999
  O   -6.12841466118109      9.94901524994798      1.91740692698743
  C   -8.33207009453426      8.32839846368863      6.24191955826891
  C   -6.40204729502759     10.18961075617247      6.91177994406565
  C   -1.85536469538413      7.05714726868825      2.41996947620498
  C   -3.78104858816215      5.12079651244640      1.93536226054893
  C   -9.51678365617775      5.83213275034365      1.97695973889295
  C   -8.61334322466358      6.41700501135486     -0.57887057500307
  C   -5.19419446113281     12.25420021548614      2.89543696326301
  C   -7.03390482178541     12.18201357509809      0.82259420501102
  H   -8.59603561939627      7.44125973472595      5.65880245571290
  H   -8.93216849488476      9.19594933361234      5.94605149417588
  H   -8.45303306560080      8.11355302258262      7.31125326392642
  H   -5.38619753258527     10.56784970355420      6.75739431496455
  H   -6.53352229845359      9.93005002170132      7.96969666843715
  H   -7.14835774190291     10.92597678110029      6.59493785787945
  H   -1.15190567136304      6.27059877473981      2.72052365242234
  H   -1.59534822807935      7.99326096831624      2.92449368713540
  H   -1.85921564462608      7.18994040844103      1.33295474011859
  H   -3.06353032760672      4.34802306740752      2.23938155311832
  H   -3.63915473006783      5.39606014277690      0.88454232868779
  H   -4.80001650610530      4.77068309646214      2.12696382243491
  H   -9.92556476295380      4.89281653312526      1.58343046378295
  H   -10.21732176777054      6.65999918797367      1.82168655857926
  H   -9.26881462501735      5.70992927627396      3.03554850766492
  H   -9.39801606656681      7.18081917299602     -0.56720371805088
  H   -9.00429120193297      5.45559195698501     -0.93449032373610
  H   -7.77604692164511      6.73079936505296     -1.21057121826287
  H   -6.15123465256657     12.14188981094646      0.17537716488456
  H   -7.87841873003315     11.66303303162660      0.35773421544712
  H   -7.31582077781342     13.21885407310296      1.04437700961589
  H   -4.81933377982474     11.77974811579786      3.80758659985667
  H   -5.47761398369288     13.29306722974229      3.10550468936133
  H   -4.44568631971185     12.20536159157924      2.09697442251485
