44
Coordinates from ORCA-job BERROF-OH_2_3_tpss_d4_lanl2dz_631gpol_Fe3.opt
  Fe  -6.59073863764713      8.06873853662960      2.85600328995523
  Cl  -8.75142047259507      8.42124090136191      3.53350838357087
  O   -6.60021039902908      6.37758786188911      3.49819745899249
  S   -6.57503694402894      8.29144431763578      5.85439177382681
  S   -3.88279470483425      6.94161886372191      3.25464952463755
  S   -8.27089453299565      6.31705930767723      1.11321245365285
  S   -7.10162257295376     11.06993071389394      2.77139300618590
  O   -5.92657422262951      8.83571126595444      4.49749851895778
  O   -4.82603257724098      7.77221608442718      2.27213296214683
  O   -7.19294214716584      7.49106806493324      1.14729272841412
  O   -6.42282615165855      9.81365030615789      2.08153248737841
  C   -7.36307147001817      9.76082716790557      6.56751844104232
  C   -5.11177868196693      8.16629311513265      6.91942938059975
  C   -2.27557665934195      7.66678244295536      2.82259297771291
  C   -3.74036068626800      5.32292257979282      2.44598130088358
  C   -9.58972139652821      7.03426351531716      0.09260879693005
  C   -7.52296978088933      5.17349412366132     -0.08222243243198
  C   -5.89670697723076     12.36750371045634      2.36959896516815
  C   -8.43710258634938     11.52067949398641      1.62510521366730
  H   -8.21994414197349     10.00189089312036      5.93139509165417
  H   -6.64520464439060     10.58712848874349      6.60330885027440
  H   -7.71081700771851      9.49827202807526      7.57482622800683
  H   -4.51395245803255      7.32645598487411      6.55234356414535
  H   -5.45196669526861      7.95751063117558      7.94150065378231
  H   -4.54298194859175      9.10144955664608      6.88068896513133
  H   -1.48924414193303      7.07456545281992      3.30681078092838
  H   -2.26532125652483      8.68969331767585      3.21198862768994
  H   -2.15740743032738      7.66640887101535      1.73405623391512
  H   -2.94158028206913      4.75839178030985      2.94333493889015
  H   -3.51827488319055      5.46472250970353      1.38281806124633
  H   -4.70102253503279      4.82159452544902      2.59348758621774
  H   -10.29972294007893      6.23475789489493     -0.15352942244288
  H   -9.15805693064335      7.47292493999312     -0.81318268211756
  H   -10.08686089753600      7.79339187150188      0.70417369975938
  H   -7.20423169611316      5.72584781061873     -0.97255773176018
  H   -8.26903689108234      4.41011564628432     -0.33598319838238
  H   -6.66834094962498      4.70196440903990      0.41200252255775
  H   -8.04451083510042     11.54633876988986      0.60290711591392
  H   -9.21589350281459     10.75979176235678      1.73171561279497
  H   -8.82942379252245     12.50085204581913      1.92379236484542
  H   -4.99641446224685     12.16975568156910      2.95976234043082
  H   -6.32449175648993     13.33631431281235      2.65545117536467
  H   -5.67124032390920     12.33596037248960      1.29832949447023
  H   -7.38230599541242      6.25819806963121      4.08705389539253
