48
Coordinates from ORCA-job BERROF-CH3OH_2_2_tpss_d4_lanl2dz_631gpol_Fe3.opt
  Fe  -6.72384218496554      7.87910252902442      3.00542863293722
  Cl  -8.81144302736728      8.65269504094107      3.61438076004366
  O   -7.38945617047033      6.13223383436369      3.74608416624367
  S   -6.73321323971033      8.38530704375824      6.00926436551757
  S   -3.69237758911071      7.32722306510530      3.26691143088695
  S   -8.69366095880955      6.54075385250448      1.16663495709076
  S   -6.73450712283394     10.86509208471998      2.68865998205368
  O   -5.93436813032507      8.54612007731892      4.64559712213179
  O   -5.06225761372378      7.02098127208811      2.54633385730545
  O   -7.32493979964007      7.33870280010264      1.28381691787326
  O   -6.11566340257946      9.49469551721602      2.17874962359588
  C   -7.26589245565204     10.06269543744221      6.45279129561446
  C   -5.37396558651533      8.19255211174291      7.19893594868437
  C   -2.98853076190708      8.78315593015604      2.43159810465691
  C   -2.64880825416696      6.05047547831858      2.50468562489871
  C   -9.71737677844487      7.61638286172136      0.12290176597150
  C   -8.25202173755197      5.27151803170845     -0.05478899499441
  C   -5.40978750336441     12.02051113298399      2.22218498307910
  C   -7.95166695168161     11.31420453340933      1.41544412742287
  H   -8.04937802152309     10.34636973681677      5.74557727649652
  H   -6.40942453474471     10.74580156191342      6.40011050421682
  H   -7.67382038996282     10.02645773070089      7.47236643677938
  H   -4.89692482209430      7.22597764233312      7.01012084246258
  H   -5.79756525899123      8.20194264155537      8.21010747183595
  H   -4.65399025606699      9.00780441377933      7.07040013159939
  H   -1.93801948239170      8.87763275884738      2.73426492312132
  H   -3.55724928880666      9.65430019557637      2.76458049067027
  H   -3.08174224884068      8.65792812086583      1.34776898968952
  H   -1.61040200576105      6.21957452484921      2.81500556265949
  H   -2.75217848399416      6.10336010744481      1.41576883414077
  H   -2.98828746581615      5.07877318345136      2.87742477996097
  H   -10.59277990449092      7.04280742866291     -0.20256041606121
  H   -9.13215762802340      7.96256342246790     -0.73501861685691
  H   -10.04217752718924      8.45179967231176      0.74800847370203
  H   -7.76047560017520      5.74266812988076     -0.91271023400020
  H   -9.16785645670107      4.75041726893848     -0.36024575668268
  H   -7.57396996314359      4.56787195335288      0.43896489453419
  H   -7.50125299132871     11.19360658337850      0.42441594413462
  H   -8.80702533733250     10.64621149791542      1.54652208576058
  H   -8.26337948003454     12.35188277146401      1.58661630224974
  H   -4.57477152264720     11.87827994320406      2.91496578630490
  H   -5.79157359902855     13.04280127543722      2.32052960862153
  H   -5.10081931370146     11.81701378903298      1.19179746191687
  C   -6.54656156496267      5.09577896979998      4.33639900370848
  H   -7.19025492920603      4.26273288083195      4.63099423744377
  H   -5.85930360019784      4.79260770916227      3.54793679944136
  H   -5.99960402529142      5.49014869840618      5.20179860060408
  H   -8.17360502873052      6.32491275299153      4.31095491053193
