37
Coordinates from ORCA-job DAKROA-OH_1_1_tpss_d4_lanl2dz_631gpol_Fe3.opt
  N   -0.28082357502084     10.10888644419704      6.01720804869347
  N   3.02154502136810     10.29263660384589      8.11176640524598
  C   -1.09818484261411     11.10469986452928      6.45539760087304
  C   -2.42283121183359     11.18232011114780      6.02969248993905
  H   -3.06579153938432     11.97942587759413      6.39523107170382
  C   -2.90160014190600     10.21845455049666      5.13113487139255
  H   -3.93190217873745     10.25977774778856      4.78526806813441
  C   -2.04825043024421      9.19853309344610      4.69773536642980
  H   -2.38789832898264      8.42915126304467      4.00984920543059
  C   -0.73386743053452      9.16455571036362      5.16910550695693
  H   -0.01803202098741      8.39718486465483      4.88917215307136
  C   2.89196371896910     11.32951827298125      8.98442635191895
  C   3.82598035832895     11.53074207449177      9.99899620123924
  H   3.70460494946384     12.35852753507878     10.69363797586657
  C   4.91147037480700     10.64948129366211     10.10331646359037
  H   5.65195195520573     10.78806802553526     10.88776482241497
  C   5.02326142584618      9.58636573838119      9.20158146201248
  H   5.84559202168948      8.87865007108848      9.25946970936992
  C   4.04960076497104      9.42724340179895      8.21275344077714
  H   4.06163984398177      8.61935416942070      7.48679840046667
  Fe  1.48855162868936     10.14319058154156      6.88465200184989
  Cl  2.51042075953847      8.80107688037924      5.39517921283480
  O   1.96669831257509     11.61246345047351      6.00458339923866
  O   0.91143464450068      8.73929062243153      7.91092981934551
  O   -0.35818616112461      8.14596624170706      9.68662698844765
  N   0.58862033683271     11.34546339470243      8.19630250398049
  C   -0.43346450016851     12.09154276385792      7.38474044598173
  H   0.10989282446862     12.83790308277979      6.79369285183612
  H   -1.15350882694156     12.59910932638456      8.03927187133222
  C   1.69567039928506     12.21475013636472      8.72685880082838
  H   1.37023457780963     12.75099382659599      9.62728753196977
  H   1.93922159125529     12.93655410868049      7.93871948477584
  C   -0.03863303740052     10.49553561868280      9.26668854243260
  H   -1.10756061127766     10.71956448952158      9.34525271196810
  H   0.42589560377091     10.72174926550023     10.23279292482972
  C   0.14526184688664      8.99611075306983      8.97856391076434
  H   2.48706187691423     11.34976874377886      5.21042138205634
