41
Coordinates from ORCA-job DAKROA-CH3OH_1_4_tpss_d4_lanl2dz_631gpol_Fe3.opt
  N   -0.26659249345200      9.92633692433629      6.06754516441342
  N   3.00130521303975     10.01196748273711      8.20739080874046
  C   -1.08317198554011     10.91151407243319      6.54507118605790
  C   -2.41087023716744     11.00428672296321      6.13272101359826
  H   -3.04911658444543     11.78960847147209      6.53027574906428
  C   -2.90328979193691     10.06895862620581      5.21170153433627
  H   -3.93840955429544     10.12198994668678      4.88204316304322
  C   -2.05688535804854      9.06215268171390      4.73498195650336
  H   -2.40748872409119      8.31412034378605      4.02931890614539
  C   -0.73852373445115      9.01327878568855      5.18940562214195
  H   -0.02883696764262      8.25276111274884      4.87601536314542
  C   2.89883032333865     11.06711629008937      9.06807911108837
  C   3.86643230345617     11.28519971723369     10.04788711486097
  H   3.76759647413459     12.12482549111041     10.73186716549925
  C   4.95401653352315     10.40465896282160     10.13803888573907
  H   5.71611053940512     10.55698634601932     10.89902606672459
  C   5.04154245686019      9.32577914684781      9.25177404518709
  H   5.86560769926111      8.61924305718081      9.29882901111600
  C   4.04172538182403      9.15431229435628      8.29317191979869
  H   4.03964254029541      8.34058209784353      7.57323279752626
  Fe  1.42369160369577      9.75213174597386      7.07150946702675
  Cl  2.52646477058149      8.68782623480502      5.38931809126763
  O   2.08870972665796     11.70346955363818      5.83483977399045
  O   0.63643397486386      8.42711525415017      8.19838027615903
  O   -1.10729243893766      8.16553500499271      9.63242423368834
  N   0.56817205590546     11.12358889362609      8.33828999542377
  C   -0.41679935365663     11.87757293758473      7.49575143859298
  H   0.15185753170408     12.61288596051143      6.91359714289227
  H   -1.14943828414332     12.40350811830105      8.12232803218150
  C   1.69993000247808     11.96287862600730      8.84461424028379
  H   1.41872074314074     12.49852620271228      9.76146993724346
  H   1.92771452485852     12.70452515771566      8.06957211082360
  C   -0.10207869489948     10.34394756993313      9.43842542968539
  H   -1.07577087085954     10.78517586491698      9.67648409909750
  H   0.52951343225034     10.40092605805637     10.33333311212662
  C   -0.25995278807891      8.84835220286189      9.08258966019520
  C   3.51597940080543     11.99629678549256      5.76318767097948
  H   4.08773220062534     11.06860917303983      5.64718527952313
  H   3.70695338941598     12.67771664651186      4.92686845719485
  H   3.77797057768043     12.49053149877445      6.70217883752088
  H   1.86913446184460     11.22935193611888      5.00186612937247
