37
Coordinates from ORCA-job DAKROA-OH_1_3_tpss_d4_lanl2dz_631gpol_Fe3.opt
  N   -0.28057679158094     10.10291269996351      6.01147526380514
  N   3.02414181962220     10.28877422233097      8.10587944949491
  C   -1.09603212515615     11.09947805649775      6.45123744357021
  C   -2.42006971874336     11.18114676960934      6.02411248002246
  H   -3.06133785664540     11.97885827850263      6.39132169944995
  C   -2.90057601784284     10.22175476720878      5.12180502644511
  H   -3.93005564593544     10.26765158020139      4.77411837309016
  C   -2.04935103022654      9.20095022482185      4.68712324213456
  H   -2.38938200832853      8.43435589539874      3.99632546247383
  C   -0.73580995640269      9.16241890378760      5.16071507799902
  H   -0.02326763808231      8.39308759019136      4.87848875951992
  C   2.89293235236798     11.32389715845182      8.97996931119568
  C   3.82422978785534     11.52251643886531      9.99759307348878
  H   3.70060754851976     12.34867261894369     10.69376160591076
  C   4.90911642355616     10.64084718668712     10.10378290899863
  H   5.64709102092571     10.77771279995200     10.89085876666878
  C   5.02287446824633      9.57964103428403      9.20043542261083
  H   5.84425454758310      8.87086252266045      9.25880092389273
  C   4.05161069667609      9.42308082743700      8.20880669775210
  H   4.06675984446397      8.61528324550448      7.48308795560798
  Fe  1.49133416126967     10.13321205871181      6.87715578015919
  Cl  2.50888321608019      8.80142032623640      5.38580949059758
  O   1.94933005454955     11.63353679486555      6.01374521044239
  O   0.89904647695390      8.74614684998931      7.92620490833528
  O   -0.29521872849122      8.15459407145841      9.75271481094374
  N   0.58624883378335     11.34362587189100      8.19961627914910
  C   -0.43389417031384     12.08706591812031      7.38205334006647
  H   0.10996139951288     12.83285857083524      6.79160136972503
  H   -1.15611530733529     12.59238154481070      8.03564057116947
  C   1.69794927595452     12.21085323736236      8.72319288571695
  H   1.37548229217295     12.74813543846362      9.62399047312030
  H   1.94155140609505     12.93043955289403      7.93360202797032
  C   -0.04269566803283     10.50359191947022      9.27498057100926
  H   -1.11624014531765     10.71188847048029      9.32945773049131
  H   0.40147397445697     10.75471686461546     10.24413246175747
  C   0.16644010801127      9.00125153984508      9.01490756141101
  H   2.46534309977800     11.38498814864940      5.21436558380282
