41
Coordinates from ORCA-job DAKROA-CH3OH_1_6_tpss_d4_lanl2dz_631gpol_Fe3.opt
  N   -0.29443659000683     10.03213241510842      5.93060906930462
  N   3.11003583189304     10.09073609908742      8.31788842893446
  C   -1.10599818423025     10.92641998166204      6.55230740305792
  C   -2.47488828113135     10.96958877795909      6.28857972668017
  H   -3.10742315507588     11.68632679184514      6.80708510208296
  C   -3.01474762721842     10.06908851420925      5.35961014677640
  H   -4.08114184690079     10.07960636000045      5.14580258476203
  C   -2.17227625786085      9.14878980333870      4.72678599075212
  H   -2.55670233674439      8.42824942122520      4.01003004789745
  C   -0.81293706147211      9.15223818611845      5.04529802392573
  H   -0.10891651840689      8.44575161144498      4.61198998269854
  C   2.90472666863540     11.14242987129235      9.14951540863039
  C   3.78682972657289     11.42028213979694     10.19569344787333
  H   3.59845068536275     12.26355090364348     10.85642908521686
  C   4.90565312523584     10.59609525290127     10.37790226998924
  H   5.60352429171107     10.79444518267918     11.18839950077855
  C   5.10636815556161      9.51164324781240      9.51585608921315
  H   5.95690381460343      8.84531007700191      9.63162441823808
  C   4.18110338417526      9.28564891394938      8.49550836299642
  H   4.27139130552648      8.45725064032394      7.79672909961358
  Fe  1.56951855291843      9.61494638591024      6.92524808184244
  Cl  2.68619383237835      8.38070575709144      5.38589311384076
  O   2.17147905687291     11.49234793820125      5.84911014291525
  O   0.64213029571217      8.41210578584580      8.03025157260242
  O   -1.29215599271185      8.21778755155129      9.20049086955568
  N   0.60679534492070     11.11720338928767      8.30669975561596
  C   -0.40191665786110     11.86563376519703      7.50887045809818
  H   0.14219233723859     12.62286897056636      6.93014796535595
  H   -1.12454399262662     12.37895573785806      8.15997798216791
  C   1.68789200981527     11.98915753947404      8.83549292775330
  H   1.35971715623522     12.55210162339343      9.72180418245139
  H   1.94119653851264     12.70834795625352      8.04635600869392
  C   -0.02554179010085     10.28014742497800      9.37207034512858
  H   -0.94076169595099     10.74585626051325      9.75756953939020
  H   0.69061714228330     10.18203256790921     10.19800055205168
  C   -0.31717276750425      8.85865464428953      8.85517245161466
  C   3.58647203094640     11.70602213479547      5.51968994694947
  H   3.72393240348440     11.68225701773101      4.43602834205032
  H   3.87679296372493     12.68261336962532      5.91847254132135
  H   4.17093140822619     10.90584196743685      5.97936032245515
  H   1.67798269325606     11.37497802069043      5.01223870872290
