117
Coordinates from ORCA-job AYOLIK_0_2_tpss_d4_lanl2dz_631gpol_Co2.opt
  C   9.71146875920094     -4.64803084191890      0.32749522970912
  C   8.41692427464879     -4.58365168048338     -0.19484554581226
  H   8.20955518708258     -4.88487129565739     -1.21678196079147
  C   7.39227178609297     -4.11228268946406      0.63009457421482
  C   7.61677988341807     -3.69532508005540      1.95816858835329
  C   8.93811538691280     -3.80117185277135      2.44192178010956
  H   9.13381801332742     -3.53783872414306      3.47976906817365
  C   9.98599314945344     -4.26398598851437      1.64478991930244
  H   10.99524187195026     -4.34096579186074      2.03946481797989
  C   6.50451819511858     -3.24335956014614      2.80935197335253
  H   5.61667889829368     -3.87488551900466      2.83886962665242
  C   6.46833984344041     -2.08693849798417      3.51051214258382
  C   7.50638505474108     -0.98202040894384      3.42179975422719
  H   8.39094795953519     -1.42534674278098      2.94429503791031
  C   7.10100959230568      0.22537255230330      2.51811519216172
  C   5.89786270005499      1.02080051130432      3.06495612493341
  H   6.07292526253721      1.35453005728895      4.09538452388945
  H   4.96818646514689      0.43903648701974      3.03255476720007
  H   5.74717932672995      1.91494715709665      2.44414149827792
  C   8.33381918329021      1.15545348266798      2.44539145932487
  H   8.59326362212204      1.54350462832970      3.43682467031776
  H   8.12183076216578      2.00374121625368      1.78008107479149
  H   9.20714073673490      0.62033437023271      2.04325621016880
  C   6.77620362276969     -0.30349838973042      1.10591587642021
  H   6.59211919132209      0.54269733076279      0.43024427145308
  H   5.88190741248241     -0.93959301996868      1.10343463175228
  H   7.61226446512740     -0.88724698443244      0.69383567201073
  N   4.11351494840143     -2.47363205477124      4.01353662721726
  C   5.16691875256492     -1.06036970927889      5.40509795178212
  H   5.95610529874348     -0.47475783026680      5.84838088987415
  Cl  11.01552195485447     -5.23622307629811     -0.69547275380131
  Cl  5.76887140492525     -4.01273790243761     -0.03930020028472
  Cl  5.21215353963031     -0.34560194655428      8.44038558873448
  Co  3.13090728952257     -0.36885876815638      7.40462379026780
  N   5.30412055675869     -1.83141181153428      4.29585554867801
  N   3.91348261474035     -1.16995294423015      5.84734578766968
  C   3.31010437672593     -2.03429229588007      4.96597980722748
  H   2.26677447731363     -2.30460142532573      5.03928418366838
  O   7.86661813367020     -0.46056443145238      4.71637863739779
  H   8.28098065775180     -1.18432201093161      5.22820685826494
  C   -3.80701456611758      3.86920152893873     14.12063985828323
  C   -2.51431579589773      3.96321739584607     14.64404664531241
  H   -2.34149612526619      4.35155380469417     15.64277129323293
  C   -1.44516933964560      3.53726622973385     13.85164500758772
  C   -1.62536556316211      3.01257326760324     12.55526534530004
  C   -2.94732969669384      2.95755123755721     12.06666050687583
  H   -3.11310330118670      2.60950999466356     11.04849346617618
  C   -4.03784616439482      3.37290760286411     12.83268933555536
  H   -5.04793152360152      3.32854850706187     12.43515028529354
  C   -0.47144892270942      2.60372121603992     11.73667105039937
  H   0.35114593971843      3.31387147468683     11.64755165568466
  C   -0.31757346921149      1.40038495675501     11.14130405050455
  C   -1.22690270799293      0.20498562595373     11.34691441007591
  H   -2.15441301117668      0.57808515278062     11.79962756396247
  C   -0.66256705883872     -0.87661476056975     12.31869738848124
  C   0.58862411946471     -1.58580831014871     11.76163223747044
  H   0.41924438614620     -1.94276595907192     10.74040687524164
  H   1.46848794173445     -0.93187772845454     11.76066655360532
  H   0.82558633778380     -2.45963546797471     12.38287533483520
  C   -1.78837755949291     -1.91460519182972     12.53026117908218
  H   -2.06193118482302     -2.39881743025761     11.58445691377052
  H   -1.45484558813939     -2.68920365604856     13.23363178521244
  H   -2.69177975120007     -1.44338289199287     12.94440783435038
  C   -0.33208078599420     -0.20544163510300     13.66736982380826
  H   -0.03100173991256     -0.97139140977837     14.39439844535258
  H   0.49090437415116      0.51311110322287     13.56953471145859
  H   -1.20374947263594      0.32546479142881     14.07675935677591
  N   2.07904473011297      1.73869161027068     10.82069640830024
  C   1.07051064322331      0.47410149749226      9.26509508258772
  H   0.29520821366147     -0.03184047487154      8.71560651924013
  C   3.09002999193229     -3.01157367912341      9.08802977470810
  H   4.13095840190889     -2.88604100350968      9.35675399966873
  C   1.21898585110733     -2.65295547073406      8.13557908493415
  H   0.41498427835097     -2.24514417001396      7.54369512620070
  C   -0.06928558812033     -4.43410938654597      9.39483651823685
  C   -1.38648766029844     -4.10799716260259      8.69511148113377
  H   -2.18404479407043     -4.44366413279469      9.37292623161090
  C   -1.62440965472402     -4.88545575780593      7.35750716481242
  C   -0.56289057980247     -4.57637555415834      6.28278877625133
  H   -0.55230145244999     -3.51113208125543      6.01890600442807
  H   0.44370624240708     -4.87533955732797      6.60583418144302
  H   -0.79692175533682     -5.14142959609448      5.36979853973144
  C   -3.01625686404522     -4.46593894162091      6.83411195032765
  H   -3.25110359038168     -5.02109934422360      5.91526909265002
  H   -3.79837161108937     -4.69189883086311      7.57427551287441
  H   -3.04715525172220     -3.39319427621050      6.61509660278632
  C   -1.63014345143698     -6.39972631645018      7.64871847041844
  H   -1.89051541799960     -6.94701487336282      6.73241798064204
  H   -0.64853068766321     -6.75641475301621      7.98594664109905
  H   -2.37296639332163     -6.65771979420976      8.41689543170098
  C   0.10177269527994     -5.40528136452356     10.32301841336766
  H   1.12436732746632     -5.61320120126346     10.63559025138697
  C   -0.94923054626021     -6.24284124067062     10.92100397715039
  C   -0.80756222812254     -7.64590558796187     10.96440592990712
  C   -1.75712021347345     -8.48472990559753     11.55289106079248
  H   -1.61902409875760     -9.56127701980933     11.55414765860367
  C   -2.88804872995031     -7.90148483873629     12.12987368433907
  C   -3.06772138940715     -6.51391469536127     12.13512897019428
  H   -3.94209364549711     -6.07634772168269     12.60902365260757
  C   -2.09786382552797     -5.70619933302014     11.53976599202184
  H   -2.21242271819457     -4.62603179781670     11.57887023812296
  Cl  -5.16467339772446      4.39742858715232     15.10285887667718
  Cl  0.17689185321544      3.63640889688153     14.51996245416331
  Cl  -4.09887393597105     -8.93861738077945     12.87312763586474
  Cl  0.60245815425167     -8.39227591819078     10.22028577193677
  Cl  1.18804559622670      0.04932285197447      6.17727694916235
  N   0.88476343670705      1.17783835644856     10.40691256676667
  N   2.35857808285128      0.53905825972144      8.92285825340236
  C   2.93293141550211      1.31614225783759      9.90047509150391
  H   3.99155727714621      1.53475304807668      9.91687016095269
  N   2.47102217803612     -2.20483295151375      8.16875577692628
  N   2.30231289065406     -3.93050097308491      9.62520314617450
  N   1.09033332816504     -3.69745826741492      9.00349850198653
  O   -1.54693867588389     -0.45476648498621     10.09464926286737
  H   -2.08857682900396      0.15101995219607      9.54996881406730
  O   -1.54078525735260     -2.71173193636222      8.41971162011401
  H   -1.52401672713109     -2.18818950936360      9.25339610409993
