123
Coordinates from ORCA-job AYOLIK-CH3OH_0_4_tpss_d4_lanl2dz_631gpol_Co2.opt
  C   9.44616604391944     -5.07135656101310      0.13030804090311
  C   8.21675426431779     -4.73974362668045     -0.44506806832820
  H   8.04216206859173     -4.87093121051101     -1.50833458310314
  C   7.21530599984211     -4.22546209227648      0.38278165733588
  C   7.40087795266838     -4.02347154966625      1.76597960704729
  C   8.65420655377615     -4.39311706647586      2.29827047718852
  H   8.81211976059430     -4.29804594075523      3.37108873995907
  C   9.67781463194801     -4.90674709459228      1.50036228020427
  H   10.63372700646889     -5.18879881996699      1.93265954457420
  C   6.30712933220958     -3.51758927520483      2.61173275879908
  H   5.33957702103628     -4.01040053765110      2.51701471487725
  C   6.38470577787694     -2.45712776645538      3.44793268875064
  C   7.57112777019270     -1.51500195347326      3.54732456316648
  H   8.41000697941353     -2.02140947698141      3.05004475859054
  C   7.39641615642149     -0.15634651679895      2.79536192685703
  C   6.31667705013719      0.75486596108264      3.41545583989699
  H   6.49781876348847      0.92513381593255      4.48368944565572
  H   5.30637032533413      0.34688252266329      3.28972324732613
  H   6.34125970523387      1.73104880590083      2.91033294335370
  C   8.76367645975145      0.56190221158786      2.86526062459985
  H   9.04647970876243      0.76688724730775      3.90383398014654
  H   8.71346346155018      1.51428537805711      2.31986412727095
  H   9.55371987565190     -0.05004161311691      2.40478571273865
  C   7.04726545846390     -0.44962246351151      1.32171707709649
  H   7.02949198143352      0.49031945878397      0.75358104358790
  H   6.06285801851590     -0.92434756278819      1.22293724438940
  H   7.79230170465383     -1.11060036610262      0.85514839075078
  N   3.96860625534265     -2.53633207937605      3.77055332002991
  C   5.10490058675293     -1.43969144565501      5.36764510045072
  H   5.93170851690816     -1.01714037623024      5.91876457146779
  Cl  10.72030277742054     -5.71930475070928     -0.89499635929899
  Cl  5.67663208050124     -3.79087848335868     -0.35021121611031
  Cl  5.21913837583326     -0.31464937784160      8.45618765971408
  Co  3.04532372862382     -0.33367421851102      7.36486049074762
  N   5.21729555442595     -2.12069857463732      4.19556270014898
  N   3.82305257230994     -1.38644398667927      5.71507418312650
  C   3.17185903202282     -2.06148882808875      4.71581845262840
  H   2.09511013850906     -2.16452009196336      4.69339126349834
  O   3.44713214505895      1.49700797442452      6.24399550366636
  O   7.92524455680823     -1.21707014360552      4.91173244507686
  H   8.19457152488657     -2.05324575132745      5.34248254355240
  C   -4.15672142088560      3.45803890020722     14.34721499150650
  C   -2.87204299957441      3.64724565201279     14.86474636329681
  H   -2.72403028955098      4.03108847527454     15.86916612837450
  C   -1.77773270905023      3.32323357331001     14.05852780602344
  C   -1.92552632176105      2.80887269263095     12.75428246073273
  C   -3.24171599205031      2.65294692755779     12.27275982709572
  H   -3.38581531192894      2.30736451051874     11.25050304358543
  C   -4.35649438916903      2.96559390013436     13.05248103711840
  H   -5.36273600900375      2.84513078911574     12.66109600631300
  C   -0.75008955093929      2.50798831527572     11.91815260834715
  H   0.01135150726587      3.28416401875574     11.83386325585296
  C   -0.51130409981686      1.33179758081229     11.30047468894886
  C   -1.30810852675101      0.05752635201637     11.49297883864278
  H   -2.25473905998935      0.32875073433773     11.97798025363946
  C   -0.61462361753747     -0.99233839156793     12.41678670375805
  C   0.64123710659495     -1.61215159047337     11.77084203720744
  H   0.43125253967052     -1.96058075276378     10.75501890591508
  H   1.47682270321863     -0.90411007755372     11.73171609284290
  H   0.96777445148960     -2.47897853806682     12.36029815236730
  C   -1.65951077623580     -2.10006185857810     12.68204641762927
  H   -1.99619171014580     -2.55639355416218     11.74238934342662
  H   -1.22307326609028     -2.88599919835680     13.31257588595954
  H   -2.54200674090178     -1.69653039870173     13.19992126477005
  C   -0.24033102360504     -0.31348662982424     13.74994728707514
  H   0.13149522793422     -1.06955776828853     14.45428867493929
  H   0.54642287857351      0.43838198689580     13.61083682438307
  H   -1.10980220401525      0.17841157798714     14.21006906353201
  N   1.90962577892822      1.61707878933703     11.08567977438889
  C   0.88772147337608      0.68746968506841      9.31542977302061
  H   0.11246781116342      0.31115465012877      8.66488340852336
  C   3.07750836450385     -2.98544126775556      9.05681514475828
  H   4.12791212782902     -2.83914169765815      9.27465344553930
  C   1.14804760876494     -2.64150242850258      8.21524450619149
  H   0.30556139757820     -2.23501913220281      7.67746107226936
  C   -0.02580447212895     -4.50106952714891      9.46801215561913
  C   -1.37101008359359     -4.23521845907670      8.80011468885768
  H   -2.13353677789458     -4.62839530729655      9.48768982937937
  C   -1.59272969289019     -5.00187599222126      7.45351207467186
  C   -0.58330658755424     -4.60229834701139      6.35875688454338
  H   -0.63730785384322     -3.53086829612325      6.12890718953104
  H   0.44745883999228     -4.85501136085446      6.64246896987401
  H   -0.81418672386752     -5.15276477301047      5.43604768592495
  C   -3.02274184976075     -4.66372648764139      6.97646299178190
  H   -3.24647914942361     -5.21287777963913      6.05131306703426
  H   -3.76717739964029     -4.95669568185605      7.73196680437193
  H   -3.12956547888447     -3.59082680962458      6.78329534925832
  C   -1.49305666727546     -6.51831793243788      7.71518974775795
  H   -1.73856693342627     -7.06578253962027      6.79495416378975
  H   -0.48280313367804     -6.81583836989068      8.02428926912579
  H   -2.19893969178592     -6.83826191135159      8.49488453025879
  C   0.20721226718908     -5.46177070615277     10.39346669036081
  H   1.24452998036955     -5.62715148827547     10.68203062887271
  C   -0.79449076117926     -6.34215588902095     11.01494248848522
  C   -0.59490731581877     -7.73829220871289     11.05386322598547
  C   -1.49475760894821     -8.61449012414226     11.66603373019514
  H   -1.31322385582265     -9.68461318105751     11.66345995064961
  C   -2.63318651568577     -8.07712774835785     12.27196966606791
  C   -2.86903713257570     -6.69805974565351     12.28215992249503
  H   -3.74820843138083     -6.29606357949900     12.77821855380844
  C   -1.94819863248770     -5.85213813414346     11.66243259880381
  H   -2.10556174565392     -4.77747310086468     11.70402733704865
  Cl  -5.54504833281301      3.85974338506538     15.34585243288400
  Cl  -0.16382747518840      3.54021309117849     14.71786058549963
  Cl  -3.78170584539692     -9.16212793002241     13.04581935117185
  Cl  0.82542723696592     -8.42733404109157     10.27502758528058
  Cl  0.82006984291902     -0.05022295889860      6.16416506905009
  N   0.69949171022663      1.20928535107138     10.55152168392400
  N   2.18396013065855      0.73051374900238      9.01497243042223
  C   2.76490901227015      1.29205284301818     10.12320164960122
  H   3.83564070230948      1.42747967557126     10.20563001739313
  N   2.38903077138566     -2.16339676536972      8.20263866521131
  N   2.34178048277105     -3.94365870937209      9.59717175190021
  N   1.09414845498190     -3.72097208546030      9.04525701755846
  O   -1.58694592795869     -0.59135512812454     10.22667978260832
  H   -2.22291871947286     -0.04271379435744      9.72553725089547
  O   -1.60961621236594     -2.84635026338627      8.55203291962018
  H   -1.55528201662049     -2.32731659448398      9.38719959493464
  C   3.86791944277263      2.68328895354352      6.94995137821917
  H   4.07018111132586      3.49070306418946      6.23332585413830
  H   3.10922912727366      3.00527890798294      7.67581273005195
  H   4.78519674791793      2.40310922055862      7.47417424326428
  H   2.52079052813923      1.60456590941480      5.91592728150673
