119
Coordinates from ORCA-job AYOLIK-OH_0_1_tpss_d4_lanl2dz_631gpol_Co2.opt
  C   10.27416460711280     -3.80595212079792      0.19581297907781
  C   8.97920098908694     -3.99564865671225     -0.29391619680782
  H   8.80714087571612     -4.29080869591400     -1.32415051769437
  C   7.90560054624100     -3.78785043277893      0.57572394294301
  C   8.07927508050619     -3.38833823869328      1.91673980720529
  C   9.40791858203551     -3.23168702974678      2.36514823894658
  H   9.57755008649623     -2.97479847577063      3.40918947876409
  C   10.50361577214055     -3.42848262220907      1.52357885888614
  H   11.51845211515288     -3.30595613295398      1.89159134470466
  C   6.92424034285118     -3.21500740960971      2.81223084299082
  H   6.19515126828536     -4.02443402208947      2.84249738694301
  C   6.66535684904538     -2.11608805827075      3.55742966621279
  C   7.43845151195323     -0.80959881741655      3.48655168160714
  H   8.38911910971163     -1.03655825832301      2.98415983435722
  C   6.76206062383255      0.30140849280802      2.61980989498240
  C   5.36782038368659      0.72799226047474      3.12612047479745
  H   5.38194192781951      1.04042083468913      4.17753653968193
  H   4.62614892491674     -0.07307931796715      3.01010031269772
  H   5.02102659423133      1.58225480820161      2.52746666783726
  C   7.70860834389768      1.52315530215838      2.64440974670586
  H   7.79805356566046      1.93208595470919      3.65668051361286
  H   7.31682414752498      2.30651664261404      1.98084513883911
  H   8.71419441359044      1.25049183879197      2.29048193727398
  C   6.64472161774531     -0.22294667027218      1.17331025917103
  H   6.23947304469831      0.56735963395322      0.52706753158404
  H   5.97469634930093     -1.08987365804585      1.10711664979540
  H   7.62551677293614     -0.51704133169913      0.77142512123362
  N   4.49791628323604     -3.06445144602544      4.15819698885771
  C   5.19496724935858     -1.36267507857393      5.45276843152901
  H   5.79536434328258     -0.56137490200990      5.85024855605016
  Cl  11.63960061014077     -4.06107349035158     -0.88324120951258
  Cl  6.27662346061804     -4.00965601101881     -0.05119642371091
  Cl  5.08486944448106     -1.02725565045649      8.61889740838293
  Co  3.15607196937003     -0.83178578761721      7.34490142322864
  N   5.50316346174396     -2.13945651692229      4.38494161112690
  N   4.01240300349915     -1.75447228412326      5.92028718292126
  C   3.62253166956612     -2.78221492621670      5.10888872197310
  H   2.67802491312085     -3.29556303448229      5.21779107413827
  O   3.85819167863260      0.75261887974637      6.68662386442292
  O   7.70354022203730     -0.25690874119766      4.78944360050124
  H   8.22909085914777     -0.91032908036215      5.29392285558355
  C   -3.44574862320131      4.10003065347274     13.97197192292338
  C   -2.12809838484023      4.17744200469589     14.43207563252303
  H   -1.89701798997841      4.61734834255440     15.39724203142250
  C   -1.11135265316347      3.66645812255109     13.62118394650929
  C   -1.36745927524424      3.07382649142945     12.36729410492988
  C   -2.71181396952341      3.03820754836501     11.94144977659837
  H   -2.93506313390308      2.63590214490100     10.95451159392181
  C   -3.75185711947567      3.53681836085547     12.72787556876211
  H   -4.78004833444089      3.50531552963409     12.37847260834561
  C   -0.26621165614582      2.58016095748352     11.52375637569564
  H   0.56533817690296      3.26080617348539     11.34067242680860
  C   -0.17082495153549      1.33421381381210     11.00570625791234
  C   -1.11078329944689      0.19404360416811     11.34806329653047
  H   -1.98273895333831      0.64923440600000     11.83482370103423
  C   -0.55426441988704     -0.85823094220650     12.35676165640156
  C   0.56591930166821     -1.74005120295316     11.76798528280501
  H   0.25403090247787     -2.20271956792772     10.82500699839598
  H   1.49099261398975     -1.17856269415379     11.59268710427216
  H   0.79925102892517     -2.55112592369460     12.47034815526964
  C   -1.74886986847870     -1.75633334195863     12.75602294827633
  H   -2.17160105556043     -2.26443848327080     11.87959624875768
  H   -1.42237545267878     -2.51764410517989     13.47701545759108
  H   -2.54932419461551     -1.16474189565557     13.22366438298116
  C   -0.03705044353636     -0.11819130969339     13.60733116646708
  H   0.25260830495595     -0.85089906403449     14.37223606996188
  H   0.83923338336269      0.50088876550399     13.37874845913593
  H   -0.81137719990074      0.53229781873272     14.03885656819757
  N   2.13764048970442      1.76837185710238     10.33389198936904
  C   1.11210749191453      0.10169051187393      9.23427600897154
  H   0.33150761888404     -0.56831084501379      8.91714816518517
  C   3.02267996649301     -3.37105810598312      9.06802513098302
  H   4.06910818006984     -3.29647740232991      9.32960180242873
  C   1.15974480111735     -2.92365905761827      8.12081078465892
  H   0.38119998000446     -2.48409513616143      7.51980092042718
  C   -0.21500090569559     -4.59576613268191      9.42031617312417
  C   -1.52246241492572     -4.17082250300551      8.75611710669949
  H   -2.32340474494666     -4.45024075608702      9.45429940414023
  C   -1.85463599375666     -4.92336367595587      7.42479058781382
  C   -0.80432735918674     -4.69478511830350      6.31958959703440
  H   -0.71584280656301     -3.63395042764417      6.05322123195563
  H   0.18431134828561     -5.07568913352203      6.61179670101056
  H   -1.10960418261434     -5.23737779067320      5.41409953622258
  C   -3.22495928092453     -4.39950895740519      6.94015907559125
  H   -3.53088861338307     -4.94377478799055      6.03611746886060
  H   -3.99870280180733     -4.55492683668203      7.70679026978894
  H   -3.17772604334401     -3.32993913956496      6.70850203257909
  C   -1.96586844738090     -6.43327725026148      7.71887424673731
  H   -2.28425377457235     -6.96027920701401      6.80917936351160
  H   -1.00620086238062     -6.86067466281040      8.03662023568847
  H   -2.70952273950243     -6.63627938215307      8.50275325648858
  C   -0.09479190908430     -5.56452468938148     10.35777663556824
  H   0.91452872999133     -5.85348753428876     10.64882653763640
  C   -1.20115186155490     -6.28562332284745     11.00608689182570
  C   -1.20817553095544     -7.69473930017500     11.06246727277644
  C   -2.21806863141051     -8.41989765069119     11.69989465499767
  H   -2.19705246873086     -9.50506834607648     11.71104504513775
  C   -3.25470172913827     -7.71200541948424     12.31403530145911
  C   -3.28336032413529     -6.31288563159741     12.30871128659074
  H   -4.08435450849496     -5.77901313526892     12.81271100772467
  C   -2.25760043689941     -5.62072378768489     11.66353660238856
  H   -2.25075325239410     -4.53366087928626     11.69325997524394
  Cl  -4.73852130934704      4.73508185653932     14.97879191475266
  Cl  0.54204782114102      3.74300243292339     14.21099224909525
  Cl  -4.53786722751598     -8.60455706276250     13.11972951387683
  Cl  0.08468102989755     -8.59295947258290     10.27616478122730
  Cl  1.25393952643235     -0.58957366300154      6.03694574062650
  N   0.97123032680208      1.03189463187144     10.21169481344353
  N   2.34117353624416      0.18955490215122      8.74202624091930
  C   2.93006529469934      1.22143207068859      9.42611808091721
  H   3.94613596477950      1.52992722814379      9.22961915507737
  N   2.43481207210428     -2.53196145233182      8.15138709302518
  N   2.18939817536417     -4.24395753613399      9.60748452139197
  N   0.98671948786557     -3.94930132544168      8.99426811662147
  O   -1.56227619032864     -0.52386502361340     10.16846953854945
  H   -2.05081601950160      0.09761131310691      9.59205530211764
  O   -1.57619222485179     -2.76330704391532      8.49509123626908
  H   -1.58532991304020     -2.25534164311110      9.33809321259801
  H   3.15220631877361      1.03670946770238      6.06348422459885
