118
Coordinates from ORCA-job AYOLIK-oxo_0_6_tpss_d4_lanl2dz_631gpol_Co2.opt
  C   9.58344302849612     -5.21305394706081      0.70680734677206
  C   8.32177343282139     -5.10983998306013      0.11457751108731
  H   8.14209352197062     -5.48158110040714     -0.88922799123323
  C   7.29415068001559     -4.50711097501233      0.84481561608633
  C   7.48510952771043     -3.99610377082035      2.14504308752205
  C   8.77254173847514     -4.14358819086378      2.70308976877108
  H   8.93841576392525     -3.80736295641578      3.72501813565463
  C   9.82219312323205     -4.73791865491076      2.00109828092889
  H   10.80460059560653     -4.84546109013784      2.45229204880503
  C   6.36687364666514     -3.40576695528523      2.89862818265053
  H   5.43932847071355     -3.97685667267770      2.93578026551817
  C   6.37472639224173     -2.19293541793764      3.49689145905269
  C   7.48337904228917     -1.16297879683467      3.37431964404025
  H   8.35950579397519     -1.69444691965386      2.97882621095450
  C   7.19686947998679     -0.01122331516225      2.35864828998276
  C   6.02920441285300      0.90414621864778      2.78101202024310
  H   6.17850762817374      1.31152016850412      3.78852871061159
  H   5.06242454994520      0.38624466689068      2.74696606976446
  H   5.96875354441067      1.75211250638693      2.08459620954695
  C   8.49195487355766      0.82850008533972      2.26891308969872
  H   8.73864909984977      1.27618021852678      3.23820047861323
  H   8.36222676976108      1.63365863483681      1.53285179060792
  H   9.34150937888110      0.20821632119543      1.94594775078719
  C   6.89739312711873     -0.63663276453641      0.98026641129433
  H   6.80343245171330      0.15870519487993      0.22863734527343
  H   5.96107772851123     -1.20922590928360      0.98596561396484
  H   7.70641808523690     -1.30906331100750      0.65959164636698
  N   3.97516024226739     -2.38445988088647      3.90046031959798
  C   5.04660689114336     -0.91751193035368      5.21815714327529
  H   5.85033070436280     -0.33981771565439      5.64785033268799
  Cl  10.88986228733546     -5.96805185600592     -0.19581562119484
  Cl  5.71360458330945     -4.36096907535466      0.08779301711699
  Cl  5.07510788863136     -0.01553068394754      8.40183499679533
  Co  2.97888949825972      0.25397106050531      7.17205852571851
  N   5.19203311273432     -1.79855687392311      4.19535746958738
  N   3.77076377835058     -0.90532708586017      5.59268823613873
  C   3.15693460079563     -1.80616607060493      4.76497079361185
  H   2.09447463807505     -2.00378503344705      4.80520957727473
  O   3.49443356526351      1.77991113746773      6.51196617672505
  O   7.81305041105807     -0.56282566174736      4.64292913458694
  H   8.17799339222800     -1.26238837748944      5.22153789976084
  C   -4.11859600726601      3.44378949665993     14.57030475272455
  C   -2.82151085248922      3.63218264279622     15.05632767255990
  H   -2.64834847464249      3.97683611756055     16.07090729017784
  C   -1.74783460210913      3.35938885514004     14.20476831512894
  C   -1.92816321782260      2.89674424013681     12.88531970316289
  C   -3.25609493089435      2.73970603227243     12.43751236760954
  H   -3.42609160942885      2.43487675523908     11.40626189702707
  C   -4.35085866122194      3.00224134371908     13.26272519628854
  H   -5.36676941551465      2.88234526678450     12.89699700264277
  C   -0.77461092404376      2.64938842243491     12.00253423867413
  H   -0.03113827129765      3.44280379233028     11.92025452168113
  C   -0.53514286368378      1.49883772866368     11.33759084616491
  C   -1.30732163574914      0.20775703065065     11.51380846354348
  H   -2.24028439102257      0.45331416751346     12.03700383727648
  C   -0.57665638629090     -0.86280025919579     12.38191937483811
  C   0.68284866302932     -1.42941636154824     11.69517644689063
  H   0.46750461932342     -1.74392736844977     10.66925117706212
  H   1.50235530475402     -0.70167629022286     11.67204620713789
  H   1.03661974557886     -2.31021046526433     12.24674056498576
  C   -1.59335936242256     -2.00221353191246     12.62162007496289
  H   -1.93014873211924     -2.43734124984419     11.67215962117703
  H   -1.13358492284618     -2.79675554657717     13.22419400385351
  H   -2.47906524855293     -1.63409199046164     13.15979797016411
  C   -0.19562140193243     -0.22931339013313     13.73559988290591
  H   0.21668753458512     -1.00213495361275     14.39800505580720
  H   0.56222549903400      0.55457845787655     13.61505056633834
  H   -1.07048356854986      0.21157002470778     14.23534088054167
  N   1.83836378217980      1.97333581356544     10.99559675759468
  C   0.83024971833877      0.86552565490860      9.32491689320618
  H   0.05965889368825      0.39074061907006      8.73888841678566
  C   3.11041693176555     -2.58455269229902      8.87706779937450
  H   4.15743013516634     -2.41748159028081      9.09188207094282
  C   1.16819838184209     -2.27766872204736      8.06906738883455
  H   0.30372325337462     -1.88963320616004      7.55507563959540
  C   0.06460825454015     -4.21984486974575      9.25810065904765
  C   -1.29719975714193     -3.96136368511408      8.62090477032377
  H   -2.03837398987617     -4.41028601907181      9.29753030261814
  C   -1.51820657607682     -4.66779016510181      7.24148241211816
  C   -0.53524857122463     -4.19307732290921      6.15269341836885
  H   -0.62127216073533     -3.11422507691788      5.97151166872710
  H   0.50563828156319     -4.43043817790753      6.41192665128779
  H   -0.76466580536730     -4.70806513060824      5.20935857525326
  C   -2.96276176872218     -4.34437315196026      6.79884627377638
  H   -3.18656174281306     -4.85924717733264      5.85420659446446
  H   -3.68911303810756     -4.68658853224741      7.55115771611211
  H   -3.09730632981659     -3.26711017228408      6.65299588962903
  C   -1.37652835912289     -6.19190461703412      7.42952619962000
  H   -1.62534567645587     -6.70158770326359      6.48869804470147
  H   -0.35373129777287     -6.47778892555695      7.70681816103544
  H   -2.05992693933847     -6.56612258066348      8.20496950587786
  C   0.33798271499659     -5.21672914109796     10.13276038940583
  H   1.38374463031873     -5.36462610758271     10.39987032240539
  C   -0.62974688496526     -6.15459629683151     10.72272364184297
  C   -0.39251627912137     -7.54482723982336     10.68856681381905
  C   -1.26014664741892     -8.47469718186748     11.26698870760380
  H   -1.05052373702557     -9.53799156063886     11.20767771170414
  C   -2.40365480923496     -7.99968051018106     11.91413347661152
  C   -2.67561717198331     -6.62972668980175     11.99744760802827
  H   -3.55759296239813     -6.27708843092626     12.52497744075163
  C   -1.78635761419495     -5.72925589954823     11.40938221741786
  H   -1.97081990453137     -4.66254162767563     11.50717438072835
  Cl  -5.48116314821762      3.78140824788329     15.62627862132637
  Cl  -0.11783234821946      3.57555706433662     14.82306913632437
  Cl  -3.51185048461985     -9.15274358702227     12.64651002735555
  Cl  1.03465896733591     -8.15415504870907      9.85771100075771
  Cl  0.79008871160339      0.22407983799862      6.11847092194536
  N   0.65069714622521      1.42637919342857     10.54483633554673
  N   2.10082868080900      1.01532798004557      8.96397813209365
  C   2.67637497825487      1.69059548179469     10.00703720212434
  H   3.72713508687443      1.94663984250959     10.02376584634792
  N   2.39014020909700     -1.75125637581906      8.05852557316856
  N   2.41506684416056     -3.58779722358281      9.39023205368857
  N   1.15512790213390     -3.38705080704153      8.85992926383551
  O   -1.62442552708373     -0.40321752237868     10.23590850506598
  H   -2.28687840558478      0.15328522890045      9.77964225861623
  O   -1.57902180733239     -2.56884147709559      8.44662956684210
  H   -1.54180112812167     -2.09530692241366      9.30915010896945
