123
Coordinates from ORCA-job AYOLIK-CH3OH_0_2_tpss_d4_lanl2dz_631gpol_Co2.opt
  C   9.56664290489030     -4.90008656957249      0.42183419022961
  C   8.26279486147313     -4.85687049055805     -0.07883193361635
  H   8.04243090404998     -5.16654967323090     -1.09551546093348
  C   7.24567563023991     -4.39559537516473      0.76093162372270
  C   7.48647662815113     -3.96816138967241      2.08280688339755
  C   8.81717097495191     -4.05293915524434      2.54466638675132
  H   9.02660996643164     -3.78117596800145      3.57757359363871
  C   9.85787555483915     -4.50526982651837      1.73230082643266
  H   10.87457413505344     -4.56603274822097      2.11031786429793
  C   6.38265603893718     -3.52607047108399      2.94973006111684
  H   5.50084923039054     -4.16535757069413      2.99231903424763
  C   6.34476631140249     -2.36867419439400      3.64873173678389
  C   7.36675578973872     -1.24989779892405      3.54536940654158
  H   8.25310273879798     -1.68017408846385      3.05866969784984
  C   6.92745066534145     -0.05371696271307      2.64194903391035
  C   5.69101722267151      0.69691016597156      3.17973938251552
  H   5.82971973974907      1.01420204073947      4.22047045376012
  H   4.78040617125836      0.08792902509845      3.11669873267962
  H   5.52641292573420      1.59726682800886      2.57084518220734
  C   8.12721234442591      0.91921085646068      2.58112821912750
  H   8.35693682750020      1.32386087589360      3.57313933089801
  H   7.89521089889794      1.75377089894543      1.90491485777671
  H   9.02593973229418      0.41318929658760      2.19779840174343
  C   6.63287564908225     -0.59075592601556      1.22611609651426
  H   6.41983669649415      0.24868466464841      0.55045753037439
  H   5.76406931688631     -1.26127877494151      1.21722412091231
  H   7.49367217125389     -1.14116153868976      0.81901767589229
  N   3.98604725437309     -2.74024943299261      4.15374319960244
  C   5.06316699199029     -1.35628038219148      5.55979662428155
  H   5.85009050326604     -0.77976589940730      6.01979008354021
  Cl  10.86165581792922     -5.47540084158952     -0.62025396535684
  Cl  5.60986241207508     -4.32322575650073      0.11797398173143
  Cl  5.39620383785815     -0.58649343688680      8.62909070004103
  Co  3.11862255494592     -0.52883067772372      7.51571458143323
  N   5.18727375439390     -2.11904476000024      4.44451467710993
  N   3.80949249875142     -1.45539043510612      5.99844141884362
  C   3.18928198487257     -2.29868288932634      5.11290248682061
  H   2.13836653881453     -2.54255814031874      5.17685175391866
  O   3.59527977657107      1.16826347442579      6.51056987850013
  O   7.73198920677806     -0.71426048508626      4.83093813884146
  H   8.13326933321604     -1.43354848395682      5.35936260813961
  C   -3.79134544296792      3.77220997553221     14.20283658956076
  C   -2.50532228185497      3.83011970716396     14.74759470672199
  H   -2.33940247508511      4.20416783476301     15.75291600505333
  C   -1.43394697549764      3.38701933310116     13.96775816155616
  C   -1.60670244612660      2.87949545348229     12.66376934370457
  C   -2.92110842166655      2.86063160655828     12.15319112145977
  H   -3.07882366937392      2.52625256238775     11.12924127853892
  C   -4.01330522692383      3.29466486092667     12.90615312605351
  H   -5.01769899858339      3.27841543075686     12.49241566077447
  C   -0.45071211272488      2.44851462034801     11.85901721694282
  H   0.39376115761092      3.13603590515768     11.79823729988686
  C   -0.32185628487048      1.25343535210157     11.24437910931264
  C   -1.25757564070797      0.06987738765044     11.40105443152329
  H   -2.20159876951693      0.44557655127821     11.81641839734260
  C   -0.73949361248260     -1.02669597637923     12.38345824052395
  C   0.51789435909039     -1.74684789880479     11.85379125655315
  H   0.37536345785513     -2.08503263887231     10.82242297030075
  H   1.40583213749393     -1.10533593029906     11.89094047982999
  H   0.72224274593874     -2.63221991020311     12.47037997018817
  C   -1.88622964068366     -2.04963738034496     12.55117458581465
  H   -2.13841540889449     -2.52271014812446     11.59345670411191
  H   -1.58575906625006     -2.83428019190779     13.25846353121650
  H   -2.79519009264414     -1.56910687373879     12.94192743982394
  C   -0.43609727335995     -0.37361249655161     13.74692634202419
  H   -0.16435549759666     -1.15060607705167     14.47386822234565
  H   0.40004282037318      0.33279080260157     13.67633935687379
  H   -1.31075647525312      0.16525527460588     14.13939586969447
  N   2.12028100872766      1.29950726501178     11.10443263823980
  C   1.06235586466848      0.46133818167122      9.30882819592033
  H   0.28138016258832      0.17610275393688      8.62030797366061
  C   3.16117787136212     -3.04847682903189      9.13047896258886
  H   4.20832744660263     -2.91406093036447      9.37150073253095
  C   1.24725185309347     -2.65204963322468      8.24687836646300
  H   0.42944967982132     -2.21792404965207      7.69202843357621
  C   0.01950210877941     -4.52457072147851      9.41520836086026
  C   -1.29847485404977     -4.23015691620727      8.70610336280270
  H   -2.08948063386308     -4.62706795256403      9.35837377447677
  C   -1.47997046467391     -4.97015207650903      7.33846275675212
  C   -0.43160463328666     -4.55643933508519      6.28605939995432
  H   -0.46747900884184     -3.47862140880927      6.08255391810477
  H   0.58657296288216     -4.83034596567688      6.59548680019963
  H   -0.63975189597091     -5.08063126209647      5.34295663663713
  C   -2.89013417506820     -4.60995979684496      6.81952337811347
  H   -3.08857025309409     -5.14330603843370      5.87947036464647
  H   -3.66208843020810     -4.90599704142445      7.54560221437245
  H   -2.97955682757956     -3.53331873863566      6.63888206073318
  C   -1.40144242011112     -6.49204788300777      7.57399747033652
  H   -1.62219911767480     -7.02003277237140      6.63629157993143
  H   -0.40441583097677     -6.80484668792369      7.90981483612523
  H   -2.13480949420890     -6.81960036204799      8.32467375619292
  C   0.21058762556112     -5.50375239838722     10.33032992172358
  H   1.23558463212462     -5.69068613404428     10.64844643655371
  C   -0.82612660200519     -6.37190447362543     10.90919461532686
  C   -0.65740731089695     -7.77208678670647     10.93618412336151
  C   -1.59431339626070     -8.63522605705450     11.51006636785922
  H   -1.43624383576849     -9.70897445852366     11.49952247747850
  C   -2.73850386514817     -8.07993162638823     12.08845905880430
  C   -2.94456354676195     -6.69609843260310     12.10952191886194
  H   -3.82934746730972     -6.28091904105417     12.58420921908350
  C   -1.98738152758637     -5.86346816046887     11.52829566316761
  H   -2.12147428291355     -4.78584797691552     11.57828710707627
  Cl  -5.15130922142239      4.32262367380894     15.16879214414920
  Cl  0.17918206535585      3.44156471330758     14.66197727198497
  Cl  -3.93293713158314     -9.14834572601811     12.81362754966833
  Cl  0.77145011930241     -8.48161944639274     10.19307059780556
  Cl  0.89452328649978     -0.07304500343097      6.16225861277759
  N   0.89293491510485      1.00638215061231     10.53508269125225
  N   2.37022927399620      0.37667564448330      9.05444636679593
  C   2.97489860286535      0.88848469222207     10.17762982862584
  H   4.05222391813263      0.91446937123265     10.28342947031479
  N   2.49840201218235     -2.19402204907435      8.28595951378895
  N   2.39351512472766     -4.00927390283214      9.61690245089983
  N   1.16305699617974     -3.75274156847332      9.04192118260336
  O   -1.51553632933470     -0.57628334563730     10.13078142147186
  H   -2.06765277561251      0.01283346605401      9.57877058164438
  O   -1.51375772733715     -2.83558380443817      8.47140833840668
  H   -1.48897024425923     -2.32624120298429      9.31349709308428
  C   3.97954314590617      2.36119392224522      7.23167685444005
  H   4.26125022515315      3.13743188745857      6.50883159801665
  H   3.16296513829373      2.71778246477048      7.87208452359328
  H   4.84064327878435      2.07043404813666      7.83877832431575
  H   2.69483862304199      1.27626864176387      6.09728418788981
