119
Coordinates from ORCA-job AYOLIK-OH_0_5_tpss_d4_lanl2dz_631gpol_Co2.opt
  C   9.30627365937411     -5.35178332556383      0.62989995943980
  C   8.07999528947835     -5.10800385291908      0.00553967948050
  H   7.90643385847068     -5.40606393444920     -1.02359628933108
  C   7.08053627053364     -4.46141366674721      0.73749769317937
  C   7.26622332387083     -4.04217123223539      2.07077003273875
  C   8.51535590993770     -4.33205539026962      2.65966059612767
  H   8.67104252996532     -4.06957854159452      3.70449492208537
  C   9.53654176647573     -4.97347980198267      1.95724887901939
  H   10.48930249036443     -5.19051208905953      2.43200162199367
  C   6.17736822441120     -3.39757438006112      2.82289501427877
  H   5.20166546078385     -3.88253843560769      2.79684102698143
  C   6.27272128535877     -2.22850967804398      3.49628530346279
  C   7.47214270976839     -1.29776501708215      3.46603573272651
  H   8.30920630338078     -1.88067881920602      3.05830895927928
  C   7.31916524805673     -0.06463453602041      2.51856706090525
  C   6.21113258848827      0.91375760980482      2.96017635834404
  H   6.34816047163822      1.23843751053796      3.99911508602641
  H   5.20982996466886      0.47792103547708      2.85329745413427
  H   6.24813163018632      1.80839906170064      2.32295312118071
  C   8.67880164323926      0.67082287321293      2.52723952991224
  H   8.91861179201187      1.04400269474909      3.52917006125920
  H   8.64443652423768      1.52219738021078      1.83364469007640
  H   9.48998420220438      0.00204770555002      2.20240596736154
  C   7.02423550641644     -0.57568554956567      1.09301354057469
  H   7.00323782104010      0.27204053045916      0.39493504082096
  H   6.05450162168313     -1.08639208998663      1.03593518522280
  H   7.79955622101151     -1.27606519562109      0.74951783142060
  N   3.85143550909443     -2.20548260877770      3.80833403832283
  C   5.01166984428374     -0.95287374331654      5.26607857228270
  H   5.85000404238868     -0.48802713954578      5.76207738272441
  Cl  10.57753331157733     -6.16295414144819     -0.27473088100195
  Cl  5.54605799182262     -4.13891842724837     -0.05877803254249
  Cl  5.08769199442364      0.14318239397515      8.32638450241227
  Co  2.97397873103929      0.32812068100388      7.19649800732528
  N   5.10847118206846     -1.76922707968008      4.18477044188868
  N   3.72984090115568     -0.83267891775948      5.59945873532217
  C   3.06205494627052     -1.60608113070757      4.68617142902640
  H   1.98345166200530     -1.69227096674428      4.68021100816710
  O   3.10316739160079      1.94064003090351      6.37722800201307
  O   7.81765557518530     -0.80622147128638      4.77601311345640
  H   8.09823130554758     -1.56960225323732      5.31981609159816
  C   -4.23516496322527      3.43597617880239     14.48888975712150
  C   -2.95042641167408      3.63489886667409     15.00268393918017
  H   -2.80200318060204      3.98289862946263     16.02003649899253
  C   -1.85646770263371      3.36833806562441     14.17528666426350
  C   -2.00462383321768      2.90177274460502     12.85324090501980
  C   -3.32123434690750      2.73383167427725     12.37700668690066
  H   -3.46654747498903      2.42486792982621     11.34323122258584
  C   -4.43566084544725      2.98994450185129     13.17758012807345
  H   -5.44243047046488      2.86151771732287     12.79011996953796
  C   -0.83093548615717      2.66089906345869     11.99543259186077
  H   -0.09173477207801      3.45968788460683     11.92708510116415
  C   -0.56962591018667      1.51140669563057     11.33745544485135
  C   -1.33376685362737      0.21331259271168     11.49975286563904
  H   -2.27904636625009      0.44905790656959     12.00541830548056
  C   -0.60513943273003     -0.84818858377662     12.38126424823913
  C   0.66344685509407     -1.40991500119012     11.70675107536541
  H   0.45755123405061     -1.72623945187442     10.67945611440947
  H   1.47910594465136     -0.67782727000718     11.68992744304153
  H   1.01649135078683     -2.28800875367706     12.26332542042722
  C   -1.61631765368322     -1.99342163801460     12.61665421029462
  H   -1.93764492787854     -2.43886712900842     11.66635204095622
  H   -1.15784144349752     -2.77947428639973     13.23141741668375
  H   -2.51172567173954     -1.62865617708746     13.14078674790079
  C   -0.23895176278141     -0.20593622002822     13.73471564907178
  H   0.16939142290140     -0.97351049501166     14.40568038350003
  H   0.51756588431808      0.57952398131869     13.61571639197922
  H   -1.11974545033390      0.23539926987201     14.22351249120770
  N   1.82360642867636      1.94094500984357     11.07157373892479
  C   0.82928890819306      0.91895084267083      9.33766285482471
  H   0.06525702218753      0.49094970982349      8.70686512611359
  C   3.14831367767271     -2.45003849217206      8.82641717437414
  H   4.19414973547814     -2.25488773087145      9.02312972229239
  C   1.17869472694145     -2.18940594192159      8.05318638199861
  H   0.29830766107365     -1.81642139097894      7.55419703538411
  C   0.15468186891552     -4.17273509505968      9.23999053410754
  C   -1.22056322274664     -3.95797708597091      8.61584742229845
  H   -1.94028817939649     -4.43287219586030      9.29794424424695
  C   -1.42671141422453     -4.66884367591865      7.23621399776323
  C   -0.46215022760251     -4.16265805434638      6.14515453169753
  H   -0.57482596044141     -3.08509680413272      5.97166986725386
  H   0.58575054058206     -4.37695806384728      6.39642702931606
  H   -0.68430669476140     -4.67688046948711      5.19967942306059
  C   -2.88184273979472     -4.38708585427859      6.80028657280588
  H   -3.09624159648066     -4.91239927680742      5.85919289541315
  H   -3.59483231010460     -4.74519325340050      7.55802178014414
  H   -3.04633190833450     -3.31468207138040      6.64998376044563
  C   -1.23926944718174     -6.18821029611887      7.42208509119145
  H   -1.47155381088641     -6.70415600244528      6.48046678631876
  H   -0.20822661024544     -6.44287683283037      7.69928014355627
  H   -1.91114654868916     -6.58413940370400      8.19688603199996
  C   0.46994070118634     -5.16059883944777     10.11045076943955
  H   1.52226017374815     -5.27550262087244     10.36777165487995
  C   -0.46175556218914     -6.12963927868443     10.70796375789514
  C   -0.18087987664231     -7.51144809429622     10.66832118451314
  C   -1.01287586229476     -8.46936527478068     11.25305093668488
  H   -0.77039439508370     -9.52539080561803     11.18932627415748
  C   -2.16421716307448     -8.03182893216041     11.91270626530822
  C   -2.47842447629185     -6.67125628402582     12.00180010801681
  H   -3.36576837466075     -6.34762651639268     12.53880504859018
  C   -1.62424830178746     -5.74189013263549     11.40676262275597
  H   -1.84201087925971     -4.68177517164993     11.50802684066745
  Cl  -5.62294239700324      3.76595454824755     15.51425010770314
  Cl  -0.24184078904067      3.59815490336235     14.82826894060327
  Cl  -3.22795710107867     -9.22058019965400     12.65350973758705
  Cl  1.25686529658695     -8.07343195584356      9.82242863184879
  Cl  0.63283008670014      0.25896033842272      6.13123835066081
  N   0.63307794827367      1.44433056227264     10.57055157336931
  N   2.11307771189811      1.04317579093709      9.01448011025841
  C   2.67939293560641      1.66476046527656     10.09505075716208
  H   3.73592140643835      1.89114311466828     10.14559640482152
  N   2.38720188736309     -1.63095788554168      8.02964650309805
  N   2.48862626845245     -3.47577970436202      9.33801796335631
  N   1.21451120984279     -3.30456821060874      8.83155330677470
  O   -1.61727484652723     -0.40429038160368     10.21865658834451
  H   -2.26348659386936      0.15051754541521      9.73764397607925
  O   -1.54997204590961     -2.57637245905770      8.44564471787289
  H   -1.51512629792772     -2.09831169240262      9.30585102812537
  H   2.26635300049631      2.08823481187404      5.87463751044854
