39
Coordinates from ORCA-job BEXHER-CH3OH_3_5_tpss_d4_lanl2dz_631gpol_Co3.opt
  Co  1.83408353192864      7.82956471113197     10.42979865333425
  O   1.91747649272861      5.84730181237047     11.32560068366742
  N   3.56135482912286      8.39214238708540     11.66576397331044
  N   3.36373170996339      7.59255861649194      9.13384157114985
  N   0.82663195141956      6.76907134233222      8.81234590263437
  N   1.22736392649657      9.82190765229095      9.76876162163597
  N   0.25732604351736      8.27350749661050     11.83886607390439
  N   5.69394877352636      7.78457664974584      8.75236962765094
  H   3.79087715344729      7.60050049379453     12.27862240035223
  H   3.38036888356112      9.17797248368564     12.30293213588125
  H   4.73954544228265      9.79902038040124     10.59829150723439
  H   5.68230905921149      8.47876971643454     11.30417364908672
  H   5.68466981934690      7.33071466490061      7.83665319815417
  H   3.69245887855671      7.25215077110332      7.03935757760485
  H   3.36456114832186      5.80433895225772      8.02606017125115
  H   1.31371924911594      6.30755340987552      6.76598676026295
  H   1.38470487006022      8.02569837142702      7.21371509656736
  C   4.73465664071905      8.72033586270851     10.80550644434549
  C   4.60158940034560      7.97894405814281      9.48264597470049
  C   3.09791078343353      6.86400457273429      7.87914958901575
  C   1.60580582154442      7.00943107981928      7.55701471109007
  C   -0.11276596142889     10.18330346748175     10.35619786412622
  C   -0.11144984836132      9.73787820149345     11.81322219754478
  H   -0.16014213933404      7.01795415335592      8.66231469580327
  H   0.83304824684476      5.76777363755773      9.04745564212297
  H   1.20205718653000      9.90614260812954      8.74525400032479
  H   1.92722971352416     10.51017756082158     10.07703935962300
  H   -0.29469081343510     11.26182197686309     10.26824977088288
  H   -0.88304224255817      9.65875381465196      9.77840494405363
  H   0.64137568841282     10.28246921739982     12.39576473461937
  H   -1.08876628196804      9.90346374739691     12.28156338394644
  H   0.48971809937910      7.99556033384773     12.80159279596851
  H   -0.58241870224102      7.72563391122373     11.60222801133972
  H   6.61259425418436      8.11073180951798      9.06568127468556
  C   3.06749046963349      5.01178004327587     11.72629106548832
  H   3.27549549320509      5.14254745659955     12.79408915865022
  H   2.83717438852249      3.96422179668156     11.51039790567498
  H   3.90761268798552      5.34320398957760     11.11195062042533
  H   1.11327535245445      5.46330678877930     11.73477525188474
