33
Coordinates from ORCA-job BEXHER_3_3_tpss_d4_lanl2dz_631gpol_Co3.opt
  Co  1.88247034389637      7.83855244176306     10.38386688728123
  N   3.29187210783136      8.36009265603424     11.72047326273426
  N   3.33003438873226      7.36021533456712      9.32858502880434
  N   0.81006642413600      6.87076162612662      9.01204534956762
  N   1.23669805035719      9.81195409582178      9.78740917191532
  N   0.36482769231681      7.97805262866471     11.71502420567415
  N   5.69136935313945      7.25504746189317      9.18570616070402
  H   3.35655538926265      7.61296109063969     12.42916545326853
  H   3.10445828239834      9.21980273027274     12.25401628822892
  H   4.78484782485735      9.53412986839181     10.74548344145087
  H   5.44209393402314      8.19178434485402     11.70634127596857
  H   5.71334317442090      6.70487942016403      8.32373734781840
  H   3.73197979466208      6.82759408260302      7.29002405746402
  H   3.21871225069375      5.48281025898352      8.35225713237799
  H   1.20233404997668      6.08750386243575      7.04106955903796
  H   1.52560262270972      7.82690818946603      7.26245150203223
  C   4.62805878336561      8.48559368681386     11.03180353546850
  C   4.57442519604706      7.63524925695145      9.78024423425654
  C   3.05974588762948      6.54571816649809      8.11265001469810
  C   1.61273739729243      6.83909584607449      7.72612916262864
  C   -0.11636375315246     10.02573511574677     10.42077275250609
  C   -0.08002145952463      9.42852105838468     11.82308008756866
  H   -0.12706885116589      7.25351896891462      8.82252827397251
  H   0.64830730388125      5.90296678004347      9.33735796225932
  H   1.17685989191712      9.94930382773496      8.77015046716918
  H   1.88654190362198     10.53964540972442     10.11389757177762
  H   -0.36316995404171     11.09432958550604     10.45730240564898
  H   -0.86661730845228      9.52947469826382      9.79383116761362
  H   0.64050430231230      9.94819875219027     12.46527693508725
  H   -1.06367677196951      9.47439731328631     12.30670916235186
  H   0.59986637287642      7.62394787825025     12.65429917020113
  H   -0.44098251651758      7.40563756719838     11.42389452084594
  H   6.61068789246632      7.50531599573651      9.56221645161733
