39
Coordinates from ORCA-job BEXHER-CH3OH_3_3_tpss_d4_lanl2dz_631gpol_Co3.opt
  Co  1.92181602521763      7.89077245298365     10.38280222053473
  O   1.98068381546589      5.76076452779647     11.28503651142629
  N   3.36810216387805      8.52663611313751     11.62708223021361
  N   3.33484131126987      7.56225048111019      9.21826904594588
  N   0.82595102202331      6.96280162339104      8.99939168328551
  N   1.27885750883817      9.90785035998343      9.69096668335649
  N   0.39570228614454      8.22280980243183     11.69481787899364
  N   5.67103666163570      7.75073828978614      8.88283603399254
  H   3.53738851013097      7.75218231592584     12.28354230635461
  H   3.14820216930873      9.34316524020544     12.21164068190808
  H   4.65611641433105      9.86321552470696     10.57964320737671
  H   5.51699056776644      8.57640889626970     11.44514645589639
  H   5.68546247514304      7.24054695774421      7.99791060910233
  H   3.66005565110880      7.09865681104029      7.14514417441039
  H   3.25798854462499      5.71249377197748      8.19901191554741
  H   1.16595529360267      6.24865749422788      6.99663633567586
  H   1.41266027135909      7.99348645049442      7.24605319916918
  C   4.62502562070139      8.79856166068469     10.84583440837037
  C   4.56333062197120      7.97746910930469      9.57347270228505
  C   3.04461423211264      6.77209906988525      7.99437503179717
  C   1.56654791586516      7.00267862150638      7.68501912504691
  C   -0.06187832966886     10.19606731479632     10.30445026176273
  C   -0.02541473347298      9.67847855959226     11.73550846186123
  H   -0.14271870028556      7.28047145677561      8.86202786472701
  H   0.77855047502896      5.99247786923442      9.34719806859593
  H   1.22383325256994      9.99851117387600      8.66941561556885
  H   1.94503083508173     10.63440134149935      9.98298657981640
  H   -0.29239694008293     11.26845832596758     10.28098044691149
  H   -0.82620815436865      9.67654570557692      9.71367106145906
  H   0.71326808606502     10.21977069295947     12.33863403757142
  H   -1.00075687106335      9.77020133639361     12.22872894247810
  H   0.64232045185314      7.91965139264866     12.64675842205157
  H   -0.42378227009876      7.65369488456565     11.44100740142123
  H   6.57843332533542      8.10603607981136      9.19387945162050
  C   3.14658914321019      4.86925927082539     11.47004871769593
  H   3.54986022444405      4.97476446001525     12.48289618023800
  H   2.83894346356125      3.83496363844036     11.28906962111122
  H   3.88319147281437      5.17387523816573     10.72357474300579
  H   1.28469618657753      5.43491568426202     11.89446168141376
