35
Coordinates from ORCA-job BEXHER-OH_3_6_tpss_d4_lanl2dz_631gpol_Co3.opt
  Co  1.69342461913573      7.49459154534320     10.51474706861953
  O   1.52246358909141      5.85794131774458     11.17633918692333
  N   3.35619606678941      8.20180714725202     11.80168282430193
  N   3.35642761559000      7.34024318515234      9.29649693440792
  N   0.75692021578267      6.77088109470882      8.60538775216691
  N   1.13945067632207      9.49156703747806      9.81026222027465
  N   0.29378421708503      8.22233920105172     12.09103807287491
  N   5.70475951206330      7.57578852362070      9.06015602741828
  H   3.51226583778783      7.38661933514880     12.41033793257570
  H   3.13996933980413      8.98486865312906     12.42950102562334
  H   4.63955290334880      9.58137580349923     10.82832821512016
  H   5.49561916174134      8.24288436134424     11.61488633719265
  H   5.76767648990187      7.12945149194657      8.14182938765252
  H   3.92969606882434      6.62026547828749      7.34880724491025
  H   3.16350709332918      5.44184255976750      8.43816425768277
  H   1.53202608176480      6.17451318202051      6.69632546420424
  H   1.78710565327519      7.88162742682103      7.13180453287900
  C   4.59697189139128      8.50391884571923     11.03943597090790
  C   4.56275448463233      7.75326653054778      9.71651543264660
  C   3.14936514573627      6.49597096898423      8.11199836918449
  C   1.77620948423067      6.85809578743822      7.52112762984797
  C   -0.13358770414874      9.97594563080179     10.45832916574150
  C   -0.02538891574044      9.67654840237669     11.94758630019058
  H   -0.11305396592201      7.24661365642523      8.33301501812655
  H   0.50201051947871      5.79048971349453      8.78157403663564
  H   1.05575969926117      9.55644569629521      8.78823288373696
  H   1.90175656981187     10.13935447374742     10.05137145100602
  H   -0.27888593380919     11.04755546747980     10.27251596463510
  H   -0.96954660466169      9.43191771285110     10.00246685012307
  H   0.77907926023073     10.25401821377495     12.41890735576845
  H   -0.96258862214360      9.91669137229262     12.46966218841711
  H   0.60390597617289      7.99151960008576     13.04364618737455
  H   -0.55138896977225      7.65504201393993     11.93090025265333
  H   6.59687076066413      7.90814040556789      9.44103133464381
  H   1.10687178295063      5.04927816386121     11.56366912353152
