34
Coordinates from ORCA-job BEXHER-oxo_3_3_tpss_d4_lanl2dz_631gpol_Co3.opt
  Co  1.86015820273084      7.62032556087760     10.51577967033978
  O   2.00265661765028      6.10549099005620     11.16988801215346
  N   3.29166118265389      8.29031978230751     11.77148827709095
  N   3.30140948958431      7.47282672475721      9.27864754221805
  N   0.74398427092696      6.85225997049722      9.02924489425419
  N   1.41912100572088      9.53448929964821      9.86831838165826
  N   0.28172735683735      7.99617753794547     11.75946423876263
  N   5.66170703575537      7.42611674867822      9.13288264249670
  H   3.45624014172473      7.51791912878450     12.43419397223422
  H   3.03286942298970      9.10387130492203     12.34641238008625
  H   4.60637124926795      9.64090704554029     10.75916970113518
  H   5.43044414805310      8.33595544045457     11.63753450637752
  H   5.70438174518111      6.89267929630687      8.26309429940422
  H   3.66230259262159      6.80735524540026      7.28347959561261
  H   3.15242846533436      5.53247084405505      8.43735884086911
  H   1.15276975173365      6.10842560007997      7.06129650043609
  H   1.45056075676653      7.85062012315234      7.29006510058236
  C   4.56314476270440      8.57302880128143     11.00867208889614
  C   4.52620869279996      7.75385332844099      9.73258288794181
  C   3.00493959352025      6.58092073442588      8.13504368370233
  C   1.55631501840484      6.86254319338090      7.74926259717775
  C   0.04912647924991      9.96611459966630     10.35359289303641
  C   -0.08067539079338      9.46009524592970     11.78202877942443
  H   -0.16277721923539      7.31845725453226      8.88488864755797
  H   0.52972818259417      5.88042540168607      9.30206290091319
  H   1.47953294153122      9.61772154742865      8.84480768120922
  H   2.11963113308298     10.20252624823696     10.21712715032755
  H   -0.05371914640941     11.05646768151818     10.28920903676361
  H   -0.70256994904193      9.51628764551619      9.69430051933509
  H   0.61092839779169      9.97105480731712     12.46210795953804
  H   -1.09884290447975      9.58660383996285     12.17409620858339
  H   0.48789128064398      7.64662102920118     12.70694942993038
  H   -0.52128095321916      7.43251701804223     11.44469366955708
  H   6.56692564532299      7.73045097996944      9.49845531039372
