136
Coordinates from ORCA-job BAJKED-CH3OH_1_1_tpss_d4_lanl2dz_631gpol_Fe2.opt
  Fe  11.11622837421640      3.13268650373074      9.11953974169508
  Cl  11.48058102955622      3.63567249438265      6.86097461609561
  P   11.76512462812178      5.22840470794173      9.79184449423667
  P   9.06490911713630      4.09720196709692      8.95942315239968
  O   16.77368888577455      5.10945283768608     10.66640031535692
  O   10.43197156463838      8.25571499990313      7.09868200248008
  O   4.08477740278105      3.73353595586971     10.63704848603746
  O   7.42444161326771      6.77922842232017      4.75440067886174
  C   10.25549242837434      6.02845987816418     10.54898007964021
  C   9.11319168238574      5.88321054381846      9.53259691543844
  C   13.09468600874734      5.69727799211717     11.02370101629029
  C   14.50012176079592      5.62097168560130     10.40812351771213
  C   15.64885595412559      5.55294037065923     11.41632325488322
  C   17.95389448968259      4.93753291965808     11.44881800590517
  C   12.12104055324419      6.35539639356599      8.37171619807348
  C   12.18630975257689      7.86833864352643      8.66242568812698
  C   11.76388181807350      8.65679116013341      7.41942790658156
  C   9.95259559194063      8.87904549117124      5.90236484775178
  C   7.80160751325722      3.44038403207714     10.18482370955206
  C   6.33277146280264      3.78405839060642      9.88187549870210
  C   5.41003457021494      3.43790392443372     11.05101957095727
  C   3.12764513740424      3.43752574433451     11.65037444758410
  C   8.21169679637368      4.14474183147845      7.30429326109174
  C   8.14578595047607      5.53505434022918      6.64921098501241
  C   7.55007009670044      5.44811260957526      5.24501443235707
  C   6.93785155917164      6.81614023585723      3.41535156563403
  H   10.02459282965638      5.51282533579746     11.49080753162469
  H   10.43757465241776      7.08250377337435     10.79854989858852
  H   9.30494029232008      6.54388211840051      8.67811893436648
  H   8.14310973013613      6.17202507691131      9.96108258553489
  H   12.87630751118555      6.71173417550107     11.39006733615302
  H   13.02677229677390      5.02463487842520     11.89165451584337
  H   14.58625017789490      4.71347391607826      9.80237815184181
  H   14.66650640719959      6.46375157555365      9.72529269299157
  H   15.41703241922764      4.83175598949474     12.22588330966720
  H   15.84267226135807      6.53162489089950     11.89093881347975
  H   17.77819220157102      4.24212438139027     12.28850961544749
  H   18.69965891834738      4.51090591063931     10.77282907412687
  H   18.31279451861922      5.89852480975216     11.85305152559000
  H   13.04143054381556      6.00047412647520      7.88817988588749
  H   11.32882069779420      6.16005945448023      7.63926645679653
  H   11.50796413880287      8.15378292190896      9.47773856606091
  H   13.19807675397839      8.17293861042861      8.96359390949075
  H   12.43831666755650      8.44164181292545      6.57032447794737
  H   11.80249026242396      9.74244679747232      7.61801004805591
  H   10.64647732517937      8.69941352588956      5.06396625159231
  H   8.98533642666444      8.42409576010861      5.67254700582252
  H   9.84015768750156      9.96681745649919      6.04394152517751
  H   7.91021130145837      2.34617624932605     10.26960419235651
  H   8.09521615577789      3.86490251335568     11.15953600109205
  H   6.22704617461119      4.85497627785230      9.65480688738637
  H   5.98745315497152      3.22051330316330      9.00609691094056
  H   5.67796197073242      4.02309235548909     11.95328730584141
  H   5.50740545386613      2.36526380873273     11.31221612059401
  H   3.31173908668567      4.02914414981219     12.56411962202150
  H   2.14729033113126      3.69948107845064     11.24103753794175
  H   3.13939131476835      2.36558031817554     11.91455845002088
  H   8.79998477078037      3.47930373887280      6.66039597311123
  H   7.20171451218143      3.72673580772388      7.40506802412550
  H   7.52291730757151      6.21653571583408      7.24472215318421
  H   9.14746728125671      5.97613490620329      6.57428411866716
  H   6.55882005573540      4.95425018669132      5.26795556005104
  H   8.20639150624986      4.85100582437778      4.58458562594053
  H   6.87485925490062      7.87151072679111      3.13301726610406
  H   7.62069096850658      6.29156875186767      2.72496316593403
  H   5.93653416066013      6.35807114003161      3.34006555146148
  O   10.72147124203010      2.38958466377738     11.04431252365394
  P   10.53944258902424      1.08548673655048      8.27138694433167
  C   12.06108223717444      0.39707543927716      7.46298667879617
  C   13.17996186804672      0.46470382641161      8.51138581519825
  P   13.20577165766743      2.21374564525331      9.18166009248180
  C   14.50358358963864      2.95251188471777      8.06891237899665
  C   15.95889451389460      2.67422792919989      8.48611624586118
  C   16.95354442627335      3.45876295397833      7.63035792428645
  O   18.25546162104229      3.18146915732307      8.13731144551880
  C   19.26692704595479      3.84514501698601      7.38454183070324
  H   19.25810442877843      3.52483888237093      6.32816247546550
  H   20.22567788378703      3.57189987280221      7.83666402959877
  H   19.14350849153111      4.94168930858521      7.42156014987663
  H   16.88163988976238      3.16483433267364      6.56599686617818
  H   16.73707210332479      4.54071902682463      7.69892592828610
  H   16.18727418063274      1.60205841917879      8.40639482035112
  H   16.13644138944555      2.97855037884614      9.52504809847580
  H   14.30957557414181      4.02919512898255      7.98395946597407
  H   14.28911559129538      2.54919601927040      7.06879392774005
  C   13.95678402573514      2.04586118649605     10.88186302454064
  C   14.73550506223600      0.75055205708209     11.17179423713760
  C   15.22429986557257      0.69897649407013     12.61956510538880
  O   15.68050926113684     -0.62839111993741     12.86111263043557
  C   16.22912324817130     -0.77915136251867     14.16922649669088
  H   16.55008941888368     -1.82146316750384     14.25610410704174
  H   15.47849419173077     -0.55956802554757     14.94856367725253
  H   17.09732203100135     -0.11478844137518     14.31611413513709
  H   16.03932825316438      1.42686485680359     12.79156613948749
  H   14.40020740482896      0.95326012068461     13.31628655799189
  H   15.59137833369528      0.63983098040414     10.49501652667173
  H   14.08009085871451     -0.11453167657577     11.01926508438634
  H   13.10924192567424      2.11102120086614     11.57662847482835
  H   14.58612952103811      2.92814161157815     11.06218714665246
  H   12.97458080358275     -0.25051204631635      9.31830130530187
  H   14.16033471810292      0.21115401730631      8.08539082538826
  H   12.27400397776205      1.03891878079101      6.59743093301201
  H   11.89983141554528     -0.62595275106472      7.09733057922059
  C   9.22893583413933      0.73712009129263      7.00886817083804
  C   7.80912859752944      0.86037788787134      7.58549627789284
  C   6.72759849880286      1.12770649623189      6.53616541299939
  O   5.60377775512336      1.64336835858362      7.24815505022114
  C   4.49690996156546      1.93909572169445      6.39478368337412
  H   4.77215003753216      2.68530958242123      5.62982500177961
  H   3.71275337362913      2.34726890848057      7.03896778597216
  H   4.12854526153899      1.03066984386930      5.89086151696654
  H   7.08236235756194      1.86841626080602      5.79559211502324
  H   6.45516258171676      0.20885261306054      5.98777556302086
  H   7.77150930521578      1.70512698441641      8.28458592966916
  H   7.54668038242981     -0.03444100524617      8.16600500991851
  H   9.40706700543934     -0.26412010719283      6.58982830823386
  H   9.39620286015655      1.45963440499216      6.19661419665933
  C   10.21981621641036     -0.14849713874339      9.63424866945040
  C   10.34643207960493     -1.65618740205203      9.32348155119676
  C   10.82002038614061     -2.41708531680542     10.56595693304077
  O   12.07271540019369     -1.85100259207823     10.95979479820001
  C   12.64354681891612     -2.52265206600593     12.08809773826474
  H   11.97549153159785     -2.45791432039824     12.96389355853221
  H   13.59332068560018     -2.02532442623278     12.30957245568594
  H   12.82753722026674     -3.58528952878534     11.86093654213278
  H   10.08784491092342     -2.32668529933240     11.39014990294171
  H   10.94159755560334     -3.48962713898244     10.33655760816597
  H   11.08247816853273     -1.83277210667777      8.52910667262049
  H   9.39028779253660     -2.07062492294014      8.97744402968497
  H   9.22249084566356      0.05992110550665     10.05914537160410
  H   10.95741479043557      0.09517802663676     10.41143416304225
  C   10.72608921458758      3.02846446002961     12.34226364323198
  H   9.85539424923668      3.68125512539172     12.47196756883070
  H   11.64338229682870      3.61532904016327     12.39059364142047
  H   10.73754046073064      2.25451204812945     13.11917596173461
  H   9.87158569967531      1.91799084654695     10.93993357198916
