132
Coordinates from ORCA-job BAJKED-OH_1_4_tpss_d4_lanl2dz_631gpol_Fe2.opt
  Fe  11.14345738574812      3.12882250190126      9.30583031910636
  Cl  11.58890338068210      3.62901760015744      6.88074995707758
  P   11.81266676989918      5.34445892607212      9.93193026248734
  P   9.02263590297088      4.16709625154816      9.06420062621687
  O   16.68521582704405      4.72454748085803     10.89479796316308
  O   10.35237674506750      8.25441804434579      7.18487467745644
  O   4.02631835403117      3.54553256240131     10.40674090515718
  O   7.04969172439040      6.89425575091943      5.05383580188844
  C   10.26669715938783      6.02449396170774     10.70217275816443
  C   9.14519564302552      5.93658284941874      9.65468474657690
  C   13.11298258676583      5.71087683417532     11.20713780610897
  C   14.52442179618610      5.59990696447925     10.60803186334820
  C   15.64638166639077      5.36763972866081     11.62679512912909
  C   17.87113831983961      4.48953092635313     11.65560056814384
  C   12.14628153166629      6.46389140533701      8.51094150789547
  C   12.10013822107845      7.98257755904862      8.78046993263312
  C   11.65832545073713      8.72667173418564      7.51742633270889
  C   9.85079658283629      8.85878799632403      5.98627171346931
  C   7.78000722641674      3.50017876098901     10.27489825155037
  C   6.32958859249455      3.93477659935424      9.99665350503975
  C   5.32370491043183      3.15620113378855     10.84531043805581
  C   2.99729252103245      2.88729047709924     11.14147196248530
  C   8.23972103041386      4.20385530018273      7.38327802917321
  C   7.91352855890439      5.61213209048385      6.85650070499164
  C   7.30460918983231      5.55186928978704      5.45656272594003
  C   6.51726385359948      6.96679685958141      3.73281116667452
  H   10.04111475858012      5.39853844181622     11.57761883899035
  H   10.40685540867768      7.05649824206327     11.05250786901876
  H   9.36174517068561      6.60968426556299      8.81541547012178
  H   8.17789108142916      6.23878645607014     10.07922785341155
  H   12.92907356796209      6.70752979466042     11.63495247927030
  H   12.97974378474520      4.98240649451459     12.02226038753687
  H   14.55934936338050      4.74037129819154      9.92771652203190
  H   14.74992705246713      6.48330386858666      9.99683279332583
  H   15.29675942573315      4.71857700611181     12.45369732535193
  H   16.00143425486390      6.31246229742978     12.07369041097461
  H   17.66137880731142      3.86447620462469     12.54092845053882
  H   18.55204485735212      3.96084630287148     10.98307016525136
  H   18.32577614698744      5.43680456213919     11.98840025310919
  H   13.10313027840653      6.15726575413454      8.06592437120959
  H   11.39214924840240      6.19641679094874      7.75877478802889
  H   11.37945682807780      8.22723174188071      9.57295085396395
  H   13.08055802742089      8.35551540581502      9.10726508642502
  H   12.35604731087200      8.53341201975457      6.68233148392386
  H   11.63720159331471      9.81547876202966      7.69946236534173
  H   10.54149322914337      8.68588422575294      5.14419537144282
  H   8.88736456591129      8.38810414253924      5.76967002968089
  H   9.71851071055755      9.94482063045113      6.12180175967687
  H   7.86774160190746      2.40669787150855     10.28873157132073
  H   8.12842207617739      3.82925299883758     11.26436900383158
  H   6.20165140884815      5.01115329296698     10.17705493996946
  H   6.06465745264840      3.73497130785905      8.95274779149585
  H   5.45150507348165      3.37110441316168     11.92318674581006
  H   5.46948351994977      2.06999962450059     10.69604618562048
  H   3.05420978167971      3.12763071149651     12.21718259223684
  H   2.04539448952473      3.24828638969660     10.73989061644251
  H   3.05449746016838      1.79139103178445     11.02063450360574
  H   8.96892268658444      3.72462284069086      6.71566662167985
  H   7.33353786667511      3.58382237260402      7.41773408609409
  H   7.20981804507844      6.12915888084697      7.52330455948253
  H   8.82818766396739      6.21509514136856      6.80181809531282
  H   6.36476089825767      4.96674487343379      5.45864641731854
  H   8.00402127771328      5.06124699809175      4.75381112752903
  H   6.35425858730389      8.02729965316913      3.51834114571734
  H   7.21930838603311      6.54552744615709      2.99281691192625
  H   5.55758348765408      6.42729032294912      3.65909768140343
  O   10.72141095121563      2.74053679951845     11.11252652427638
  P   10.50891158705666      1.01183748752812      8.42371429470503
  C   12.02390609369307      0.30724295872847      7.62291248184222
  C   13.16895074519487      0.37625835462089      8.64457924568823
  P   13.30472992329897      2.12613573564721      9.27933597430641
  C   14.60256561641136      2.84111954307141      8.16254407733900
  C   16.04734112700793      2.48821871242443      8.56314987963489
  C   17.07261757951134      3.29101109086427      7.76144094587815
  O   18.35562917128539      2.96500425473457      8.28751835950849
  C   19.40109130780417      3.63587376926362      7.58753186578565
  H   19.41154544364797      3.35862770272970      6.51946246291008
  H   20.34110440652587      3.32216499080994      8.05206856267491
  H   19.30028760117766      4.73232013140482      7.66726673773673
  H   17.02089623699020      3.04691373888612      6.68393184236033
  H   16.87438449137453      4.37284073779720      7.87502331630890
  H   16.23912131571854      1.41536171103301      8.42202464185092
  H   16.22437508970174      2.72948786324856      9.61704926244063
  H   14.45136057347133      3.92746763974743      8.12373414642242
  H   14.35485734221358      2.48298074230651      7.15331677158629
  C   14.03004016604400      1.98754284533727     10.98681681267326
  C   14.78750599293098      0.68632615010562     11.30771210386924
  C   15.26334652370732      0.66612749464812     12.76102560342651
  O   15.74473965884995     -0.64726268107517     13.02388428547068
  C   16.26050557538529     -0.77553773497045     14.34834635910898
  H   16.60248787217276     -1.80949398233214     14.45179447087169
  H   15.48355056735692     -0.56728174221134     15.10411889557650
  H   17.10907936707216     -0.09025366133056     14.51293002155925
  H   16.06269485366080      1.41265285637026     12.92810422560477
  H   14.42742918360449      0.91397710140128     13.44460680897799
  H   15.64951834800621      0.55480370901520     10.64242359940914
  H   14.12289233793419     -0.17326144957223     11.16767791698608
  H   13.17215149100888      2.08570886031043     11.66727231858960
  H   14.67836931334523      2.86056619279151     11.14311333866408
  H   12.96734033443585     -0.30696965083863      9.48015109589088
  H   14.12744058981254      0.07924307964899      8.19657907684395
  H   12.23078027781760      0.92691644316750      6.73973313018598
  H   11.84925875164361     -0.72428495010413      7.28636491089831
  C   9.17282867461143      0.66551415778375      7.19015147067341
  C   7.77553656677077      0.78789479447218      7.81905171018141
  C   6.63421866370614      1.06083225014118      6.83234814800106
  O   5.63567301812510      1.73401437070992      7.59988583462477
  C   4.43775975864579      2.00999948020789      6.87151890866053
  H   4.64146186509877      2.64453820240089      5.99193493773434
  H   3.78332455903897      2.54272173357545      7.56744193595240
  H   3.95259570682732      1.07926865197287      6.53539875245037
  H   6.97965026570260      1.70362259406207      6.00099400265165
  H   6.23193236226400      0.13147973310028      6.39400381321906
  H   7.76809150493883      1.63830878969805      8.51000866712484
  H   7.54598645898604     -0.09966670674642      8.42321009089359
  H   9.34242116397952     -0.33315299156156      6.76102536851652
  H   9.31399559351844      1.39619659211329      6.38024548036348
  C   10.21147307805548     -0.07787043518562      9.88531844709878
  C   10.29211901674555     -1.60417716257417      9.67346190847568
  C   10.78541932581563     -2.29659987902780     10.94633723228345
  O   12.09027955543877     -1.78706658930316     11.23481830452567
  C   12.65641154671059     -2.39765132032573     12.39995759423150
  H   12.02971826402777     -2.20595855856240     13.28737997854628
  H   13.64767381788468     -1.95710720039848     12.54618116472553
  H   12.75360579581406     -3.48722621657655     12.26354114094813
  H   10.10535042797384     -2.09593462185568     11.79436345789117
  H   10.82997727821626     -3.38938502997559     10.79662343001616
  H   10.99481488859375     -1.85975551090091      8.86866688830950
  H   9.31334793048448     -2.01315025292937      9.38825644342651
  H   9.24902606743129      0.21920386493877     10.32506430309479
  H   10.96630795958454      0.23784841814230     10.61758086013232
  H   11.28499291011009      3.05707552964518     11.84580817731680
