131
Coordinates from ORCA-job BAJKED-oxo_1_1_tpss_d4_lanl2dz_631gpol_Fe2.opt
  Fe  11.16436528725141      3.11729474690402      9.18965753332649
  Cl  11.57103699592023      3.57952110067414      6.91347332875800
  P   11.84729990834285      5.23060549928319      9.85970369162937
  P   9.07366774210328      4.11706466162319      9.01860194760695
  O   16.83370609120458      4.95720645869682     10.78964810364386
  O   10.38391388154236      8.23343110812984      7.22701842311968
  O   4.11636884755620      3.44850642774418     10.48095539178152
  O   7.05157611037927      6.94206807229466      5.10711096528821
  C   10.33320974326253      5.90632193784058     10.68324976090149
  C   9.19571354333028      5.86912208796811      9.65134566373929
  C   13.16118651817442      5.50647577577662     11.13766174254255
  C   14.57397088150973      5.54760685166275     10.53370340153638
  C   15.70733474939636      5.37775162022279     11.55045049864200
  C   17.99931457336425      4.72184153167100     11.57964692503470
  C   12.17687374153761      6.39302959156373      8.47463239207802
  C   12.14483684071008      7.90259336815187      8.79695747229176
  C   11.69369258451417      8.69190695857428      7.56504857785732
  C   9.86629203700037      8.88901843381675      6.06265887042732
  C   7.86561337951792      3.42403363174766     10.24879778243086
  C   6.40469218241977      3.84458168781381     10.00795391669583
  C   5.42558321699301      3.06508480803154     10.88646470868819
  C   3.10866743837560      2.78396414453602     11.23907249591405
  C   8.24972859679016      4.18841438380090      7.35801305674962
  C   7.93387396690497      5.61138214821454      6.86407966415241
  C   7.29114460370965      5.58821113579719      5.47824490708248
  C   6.48129809037523      7.04984043611035      3.80421297449324
  H   10.12538642085369      5.24885446063148     11.53991303898092
  H   10.49795384638465      6.92212483137492     11.06713962897003
  H   9.40780926994309      6.56666201460760      8.83099751230680
  H   8.23490159633798      6.16171510932955     10.09631609341562
  H   12.92988430153765      6.43927394579347     11.67335988866140
  H   13.06330613536101      4.68475807832248     11.86202111526401
  H   14.69171368520007      4.72734695782054      9.81686570240232
  H   14.72238705393667      6.47600730445705      9.96736131760234
  H   15.44409505541502      4.61098038229500     12.30577876591996
  H   15.91655873187116      6.31672100384782     12.09315034089907
  H   17.79474056989255      3.99369321068440     12.38391051739911
  H   18.74467213598463      4.30809919190955     10.89550869936381
  H   18.37314068942922      5.65523381276792     12.03160096830695
  H   13.12623854023019      6.09882265692506      8.00581565439367
  H   11.40909696863605      6.16311422989095      7.72361875636321
  H   11.43574467806414      8.12487026858967      9.60591460009637
  H   13.13137188910660      8.25779186074560      9.12423927928701
  H   12.38375033683293      8.52762865763282      6.71744065243074
  H   11.67598722529654      9.77331780781115      7.78634214536806
  H   10.54730315772596      8.75673584513085      5.20541706152960
  H   8.90180190283719      8.42467589793219      5.83714283912084
  H   9.73210083770543      9.96730959928430      6.24813043373732
  H   7.96503672645529      2.33160821956152     10.25556942603362
  H   8.23092913320009      3.75383475152475     11.23265207604604
  H   6.27353531964402      4.92100172279924     10.18602289052294
  H   6.11271664807935      3.63759586510183      8.97252988150466
  H   5.58183440256065      3.28352934315312     11.95986971525605
  H   5.57130122824730      1.97846547062722     10.73739310552800
  H   3.19026293203804      3.02221199283457     12.31365116316378
  H   2.14565329513125      3.14118541286641     10.86137955823495
  H   3.16811379330352      1.68859824488894     11.11431078762134
  H   8.95001169829967      3.70833158970862      6.66082169756513
  H   7.33421718249026      3.58312598989233      7.40279469057169
  H   7.25334649204313      6.12511265534472      7.55684944135785
  H   8.85551631425518      6.20297124671932      6.80128347886186
  H   6.34141924033156      5.01957597501781      5.49245647738145
  H   7.96420921858756      5.09830397051759      4.74933250919524
  H   6.33292601682622      8.11714404777196      3.61451126884794
  H   7.15255957849475      6.62954549364661      3.03567911791334
  H   5.50946902581397      6.53030103736751      3.74978867130213
  O   10.86309630930455      2.77419984331533     10.79015595145014
  P   10.51499611242479      1.03266069592997      8.39975992325476
  C   12.01958668062438      0.28694853471748      7.61946869419309
  C   13.15463723511787      0.37133766516441      8.65060800990567
  P   13.26821525587083      2.13320538165953      9.25638529355771
  C   14.58600162712243      2.82704406585346      8.15119870201977
  C   16.02644456786470      2.52835865778991      8.60789191794738
  C   17.05456590283583      3.27395963436241      7.75571202219878
  O   18.33790962212172      2.97366145222017      8.29276423054910
  C   19.38158808726667      3.59651989997982      7.54746170785788
  H   19.38456067735284      3.25524179251384      6.49785854320097
  H   20.32316897764678      3.30717108446679      8.02448005752384
  H   19.28559020466754      4.69611524572089      7.56154707026912
  H   16.99420881389038      2.96190941879926      6.69581756032490
  H   16.86263516596261      4.36188562148734      7.80082324624507
  H   16.23448789263114      1.45039484382404      8.55719306730693
  H   16.18444177318353      2.85397827262797      9.64341385961304
  H   14.41058401556678      3.90638239416039      8.05287562038553
  H   14.38229507460865      2.41410589223034      7.15268702720259
  C   13.91810033106661      2.03076874175606     10.98771774125030
  C   14.67237569245819      0.74297332220445     11.36236993645420
  C   15.09294137236737      0.75799629874474     12.83250662068723
  O   15.59095983095984     -0.54072442467017     13.13679227593941
  C   16.04708010578140     -0.63853255297757     14.48541284829993
  H   16.40570248823237     -1.66319989889798     14.62064944479322
  H   15.23171433209451     -0.43613492030857     15.20119198446403
  H   16.87252995671364      0.06726311936542     14.67860304102052
  H   15.87061346626207      1.52384199570447     13.01552582914528
  H   14.22693034083134      1.00066901054877     13.47848125188694
  H   15.56072893482642      0.60396426139512     10.73353014855704
  H   14.02035116656332     -0.12514248541135     11.21647913855817
  H   13.02381856628194      2.14983420903071     11.61751846727751
  H   14.55570022427355      2.90855166643782     11.15485481997612
  H   12.94592405063135     -0.30148319718861      9.49270261957302
  H   14.12005171834834      0.07324739676839      8.21874634533160
  H   12.24056578636418      0.88075062453426      6.72198718658042
  H   11.83278914282656     -0.74977619949099      7.30728052288590
  C   9.18610677074466      0.70627768448690      7.15235145047812
  C   7.78098742863096      0.78561710741372      7.77060840976203
  C   6.64267975764189      1.06356177077332      6.78084291666693
  O   5.63720645636127      1.72061440468456      7.55321454084658
  C   4.43803361416057      1.99564165885190      6.82683897733321
  H   4.63659262490778      2.64549327847175      5.95735296594311
  H   3.77711294797275      2.51087467585155      7.52983613122523
  H   3.96238017719263      1.06542948931604      6.47620790244616
  H   6.98750995365058      1.71893343108501      5.95913251233676
  H   6.24791716300921      0.13749894179464      6.32915452490367
  H   7.74817939850170      1.61605410248638      8.48361978512348
  H   7.56479642967219     -0.12260978844288      8.34849922478660
  H   9.37493355817632     -0.27700868734931      6.69667467195164
  H   9.32282273885244      1.45976422739287      6.36285779057304
  C   10.18167041445498     -0.03011578190123      9.86979280622674
  C   10.23292831447485     -1.56024280489529      9.68066575329388
  C   10.70452508700400     -2.24266608746570     10.96741680241349
  O   12.01476759773332     -1.74983410710708     11.25777719708083
  C   12.55588746425123     -2.33778852492734     12.44682412689619
  H   11.91570599767125     -2.11896573056859     13.31801988431154
  H   13.54771599470677     -1.90114994950117     12.60019516161705
  H   12.64525257270624     -3.43099312981694     12.33748775418406
  H   10.02127742073282     -2.01801437651013     11.80688333503827
  H   10.73117737800658     -3.33808371579592     10.83398531734207
  H   10.93645388175837     -1.84093299581280      8.88513625281253
  H   9.24837484444788     -1.95428549673612      9.39424046199709
  H   9.22169125216870      0.29006123907844     10.29866718157367
  H   10.93975643088503      0.27936303499454     10.60201826800556
