132
Coordinates from ORCA-job BAJKED-OH_1_2_tpss_d4_lanl2dz_631gpol_Fe2.opt
  Fe  11.14930610176246      3.16280421293875      9.19510685763071
  Cl  11.56281442986854      3.63368062886390      6.96514021426758
  P   11.81010165316320      5.27056822998823      9.90164915635553
  P   9.04791206223442      4.10955160531733      9.02413756862016
  O   16.69145960499149      4.74936007749007     10.90816860752306
  O   10.39516356647165      8.24889170792779      7.22706096124742
  O   4.06623272152359      3.48618207570476     10.44970499034451
  O   7.12887367472989      6.89364435317247      5.02604731019498
  C   10.26912057628649      5.94691432027823     10.68157703283668
  C   9.15018685882402      5.87686871449007      9.62977699256441
  C   13.09434919379146      5.57561270349506     11.21140247007545
  C   14.51692745931516      5.59774636149125     10.62829521364877
  C   15.63997117064644      5.36331951202953     11.64827317252516
  C   17.87804380190297      4.52000258789985     11.66931087424800
  C   12.17077602455842      6.43698211531217      8.52603973903924
  C   12.12365111148810      7.94765968143649      8.83766941147138
  C   11.69175796799314      8.72420225397521      7.59023635945934
  C   9.90067196558642      8.87930640046998      6.03932481455993
  C   7.81806350658808      3.44271204275644     10.25020065807830
  C   6.36081653972978      3.85918812301449      9.98103416339378
  C   5.37192910004676      3.10790996117358     10.87258890596712
  C   3.05195045866766      2.84541097518145     11.21865933649761
  C   8.23411029482505      4.16467027777530      7.35547210393595
  C   7.96065698456256      5.58223200328139      6.82325614134154
  C   7.33690804049322      5.54339560021516      5.42947390946969
  C   6.58079764788732      6.98402844044068      3.71272867484047
  H   10.04283488368110      5.30763627488207     11.54713983831886
  H   10.41584004958062      6.97222773429003     11.04763832866325
  H   9.37291217690584      6.56115463181924      8.80126629239144
  H   8.18181194675912      6.17490264402685     10.05439196957225
  H   12.85599662377945      6.51472377535872     11.73223640219944
  H   12.99557836519412      4.76774305308904     11.95358129268028
  H   14.61839724327467      4.79345845400989      9.89051054965451
  H   14.69031327875146      6.53561915481966     10.08547127972871
  H   15.29972552381417      4.69374512686286     12.46258846633814
  H   15.97990080748411      6.30458407764978     12.11368268361776
  H   17.67449664643833      3.88037213274219     12.54562276904580
  H   18.56826800409659      4.00894560682830     10.99254988169274
  H   18.31942344684474      5.46852481304025     12.01610406241707
  H   13.13123229214408      6.14371538484995      8.07970625881120
  H   11.41954656672467      6.20171339442502      7.76037909657123
  H   11.39666909057614      8.17070031881259      9.63026645974506
  H   13.10095210551170      8.31242131740858      9.18215412040185
  H   12.40234913992367      8.56088869937319      6.75936469975490
  H   11.65835019597547      9.80708656782976      7.80260246560430
  H   10.60433489901233      8.73951699123131      5.20168547607307
  H   8.94693805160433      8.40103518584726      5.79790199743914
  H   9.75116085468948      9.95926087261981      6.20248175373585
  H   7.91743668771035      2.35060094402584     10.28365107717860
  H   8.16684970676235      3.79283417303663     11.23219267214242
  H   6.23070048637103      4.94061987200227     10.12744168421946
  H   6.07727754890965      3.62410470358694      8.94946591448009
  H   5.52214037443925      3.35356200674900     11.94110516950119
  H   5.51316687590574      2.01705108513969     10.75328975065070
  H   3.12834487255133      3.11075989597616     12.28739911247778
  H   2.09224303396637      3.19634997954149     10.82671607919141
  H   3.10751713252083      1.74687325145743     11.12272846911582
  H   8.92687791192334      3.65048833201033      6.67576949423131
  H   7.30251843314213      3.58523417561649      7.40236036484728
  H   7.28301760805734      6.12784461014668      7.49416567518625
  H   8.89733439206099      6.15027626326077      6.76115272823298
  H   6.37590823211197      4.99391178894606      5.44204564561766
  H   8.00962776968308      5.02547485992771      4.71979811292253
  H   6.45564476677682      8.04956979358244      3.49770442005924
  H   7.25545606410915      6.53470213985568      2.96369452622595
  H   5.60012418776600      6.48174152130088      3.65371570568159
  O   10.68581768850419      2.77117878622898     10.92159383035267
  P   10.48399790588725      1.07551211268457      8.42943613073954
  C   11.99946584626295      0.34487916346415      7.64691337595102
  C   13.13912615750750      0.43101482336295      8.67390660789898
  P   13.25722786419849      2.19183288556533      9.29212697703833
  C   14.56824962867474      2.88128177576641      8.17221365629443
  C   16.01117239734154      2.51098517556834      8.56222696149274
  C   17.04079628727186      3.29095132465007      7.74403567720534
  O   18.32398460355905      2.94706076085088      8.25726381343968
  C   19.37236611113934      3.59491032714022      7.54043477002252
  H   19.36602378856592      3.30967067478237      6.47436912793449
  H   20.31230539445245      3.26897483499064      7.99661760611039
  H   19.29083621817130      4.69348140340722      7.61289483012924
  H   16.97218647442895      3.04073142870923      6.66866512835477
  H   16.86237324888119      4.37706532641981      7.85164409896996
  H   16.18573455232735      1.43448941571261      8.42686949916008
  H   16.20351701536276      2.75632466181362      9.61254954250209
  H   14.43406701224803      3.96995783725110      8.12616048417004
  H   14.31387807668190      2.51984062760156      7.16567407817769
  C   14.01214352376838      2.05106315531030     10.99171353651401
  C   14.74764877605447      0.73643653660254     11.30970375962390
  C   15.27135222586961      0.72207332697098     12.74634725862339
  O   15.72178410728984     -0.60169506245071     13.01120313163465
  C   16.28404665617250     -0.72727860987663     14.31695449662798
  H   16.59905859958310     -1.76953197812830     14.42254026393346
  H   15.54321880762224     -0.48561706773911     15.09858127800010
  H   17.15816774511565     -0.06564212257450     14.43893433231719
  H   16.09773658590021      1.44623503394856     12.87554134605721
  H   14.46768510819873      1.00452978703771     13.45509667275655
  H   15.58329518623930      0.57595668863809     10.61785093865737
  H   14.05821184501493     -0.10782069304636     11.20174624720699
  H   13.18501436426369      2.16732156340979     11.70996721162682
  H   14.68014799767663      2.91151007378918     11.13035532223720
  H   12.93303932002734     -0.24656469542117      9.51283123870140
  H   14.10186269253963      0.13232885129034      8.23669064225432
  H   12.21628050243391      0.94123719453385      6.75014898328574
  H   11.82301843566528     -0.69266810278351      7.33112279961231
  C   9.16061871370345      0.70021891431209      7.18779801427590
  C   7.75422257406053      0.78403879590989      7.80351209891865
  C   6.61592375177490      1.03953329260789      6.80834510692314
  O   5.59761477518658      1.68656480236147      7.57154657009859
  C   4.40584720705915      1.95683524282383      6.83217835512443
  H   4.61190741138816      2.60682998601617      5.96432394572351
  H   3.73576987579934      2.47117088177804      7.52716912226694
  H   3.93658922201039      1.02506375752474      6.47671415612949
  H   6.95534864021790      1.69504219671752      5.98440222360668
  H   6.23678237909568      0.10519704851879      6.35982978390932
  H   7.71698876333087      1.62516166908726      8.50381055712649
  H   7.54196997134954     -0.11580804017647      8.39591590615256
  H   9.35876688008114     -0.29480523214062      6.76261374005945
  H   9.28770658352372      1.42899198294434      6.37398015138002
  C   10.17466058115916     -0.00396646949937      9.89438815590508
  C   10.24337259658469     -1.53175474574986      9.69277035197105
  C   10.72582502700972     -2.21898470792621     10.97291792161655
  O   12.03233760610319     -1.71478320372672     11.26532992322262
  C   12.59283645839916     -2.32622468975986     12.43274832268646
  H   11.96618401174536     -2.12889000363848     13.31896781982826
  H   13.58668925263961     -1.89136190422465     12.57907749006776
  H   12.68383685053875     -3.41660224513561     12.29888963820034
  H   10.04259977416796     -2.00929796097638     11.81625187885724
  H   10.76546613878676     -3.31285954595742     10.83067907510959
  H   10.94763541336546     -1.79910454887983      8.89341664462123
  H   9.26251834361080     -1.93515522904542      9.40650598113444
  H   9.21519521558934      0.30118065344257     10.33452748597501
  H   10.93312235809616      0.30658612073734     10.62438181341800
  H   11.45957407724630      2.90300538247487     11.51014372351936
