131
Coordinates from ORCA-job BAJKED-oxo_1_3_tpss_d4_lanl2dz_631gpol_Fe2.opt
  Fe  11.16614545756490      3.12296561168393      9.18341693464753
  Cl  11.57177656789169      3.58957217606578      6.90977315396818
  P   11.84515034097112      5.23595640505122      9.86386688773111
  P   9.06997358478314      4.11853390902248      9.01787923615339
  O   16.82449706126877      4.93876588540292     10.79334575035313
  O   10.37823877395396      8.24377960824662      7.24005559898492
  O   4.11674544968282      3.43669088406531     10.48650244572577
  O   7.05052594277369      6.95164239121101      5.11065894951552
  C   10.32831285710758      5.90476115452517     10.68776792837186
  C   9.19088167840524      5.86870585100059      9.65557428100310
  C   13.15678805074450      5.50715994410522     11.14452633321622
  C   14.56976145863748      5.55186047166408     10.54098553282898
  C   15.70299151581819      5.36921091736017     11.55608480645626
  C   17.98962363974491      4.69418033408199     11.58143416847054
  C   12.17451685657604      6.40491305731290      8.48394024157548
  C   12.13864278205345      7.91339937038086      8.81064864013173
  C   11.68642650956368      8.70506941431030      7.58061136468798
  C   9.85999437125728      8.90097927082936      6.07692042068144
  C   7.86558952428823      3.41936119847181     10.24768638544634
  C   6.40333126435451      3.83685211326830     10.00894935001494
  C   5.42737960678629      3.05545292710349     10.88931367538482
  C   3.11164976177450      2.77119570882595     11.24718640185447
  C   8.24458856662062      4.19308637043203      7.35784225863016
  C   7.92982216734242      5.61696958486172      6.86607036712487
  C   7.28774248805506      5.59679750315719      5.47986572710108
  C   6.48060826451305      7.06232086191986      3.80783795162175
  H   10.12162675438745      5.24474050701696     11.54263498945304
  H   10.49054703701620      6.91994042492578     11.07444597113349
  H   9.40220018228116      6.56881323239417      8.83721249152431
  H   8.22985348821241      6.15912600093658     10.10159823567253
  H   12.92416068882767      6.43715684867904     11.68447229154776
  H   13.05902498511757      4.68190208743932     11.86483037146015
  H   14.68540219795273      4.73841527278403      9.81594490346109
  H   14.71959869870613      6.48538999993801      9.98353620417488
  H   15.43337210731178      4.60387332554910     12.31055373551322
  H   15.92231839178226      6.30517462196207     12.09989019983176
  H   17.78064652232382      3.96722944289977     12.38567507299975
  H   18.73063581388770      4.27517294334142     10.89576240537131
  H   18.37111282843709      5.62451676656227     12.03324406240881
  H   13.12518202250592      6.11403040276296      8.01557521253084
  H   11.40806668276183      6.17576487332583      7.73127336047063
  H   11.42839943742261      8.13153982772976      9.61974528417950
  H   13.12406280358346      8.26994714575514      9.13981207378266
  H   12.37768242862140      8.54498477725820      6.73316743873596
  H   11.66545933521962      9.78582358399317      7.80477513927768
  H   10.54186647124655      8.77216739210378      5.21982221286508
  H   8.89666668801090      8.43511410403236      5.84960875664218
  H   9.72333333267846      9.97855546524626      6.26478622919622
  H   7.96786927240477      2.32721690500137     10.25189719049392
  H   8.23073077908877      3.74811350164418     11.23187939138490
  H   6.27023321876109      4.91299646795513     10.18724415737393
  H   6.11012150603667      3.62908399513102      8.97403811453355
  H   5.58547129309374      3.27394431504357     11.96244454349287
  H   5.57473456872374      1.96908495744553     10.73981249589133
  H   3.19547350912864      3.00990162386674     12.32150040199600
  H   2.14732047208749      3.12710792381599     10.87161393199655
  H   3.17206319447930      1.67584759607370     11.12267515688434
  H   8.94448585522069      3.71322823035204      6.66001375740018
  H   7.32893311586667      3.58791038367448      7.40188808307186
  H   7.24931808908311      6.12999376999076      7.55936481442063
  H   8.85193860652524      6.20803702478138      6.80461923741400
  H   6.33704937412988      5.02977384392766      5.49279061568584
  H   7.96025883564887      5.10688574878920      4.75045801790479
  H   6.33411846197013      8.13016259080377      3.61970845244228
  H   7.15128210892025      6.64200590427398      3.03880033428208
  H   5.50789122528156      6.54454581167291      3.75247984368042
  O   10.86619630115361      2.77514070940864     10.78209977355012
  P   10.51547990629114      1.03235605849772      8.39275391666048
  C   12.02203878059860      0.28948031722889      7.61309454695721
  C   13.15745099398743      0.37423064189357      8.64402546252892
  P   13.27398801619472      2.13598509495666      9.25015707092478
  C   14.59350626036125      2.82860328232679      8.14618211928298
  C   16.03323860900732      2.52138537521508      8.59953092962942
  C   17.06346561185298      3.26884391988552      7.75153603036975
  O   18.34582814080755      2.96409856993942      8.28864476787190
  C   19.39143947818237      3.58732190990671      7.54630668118307
  H   19.39474802298261      3.24930098203945      6.49566301905851
  H   20.33199203975000      3.29471687133651      8.02335538087980
  H   19.29749525173758      4.68704688619627      7.56372731007170
  H   17.00378044861702      2.96156143886236      6.69023000056998
  H   16.87337690052803      4.35689591984969      7.80122111660699
  H   16.23705009152346      1.44296813226650      8.54180834880721
  H   16.19289129261355      2.83993986356221      9.63685911449936
  H   14.42303143585041      3.90929948341106      8.05377789081496
  H   14.38633001335278      2.42150094374697      7.14595756387504
  C   13.92320155437499      2.03425820690062     10.98103835307783
  C   14.67162150514628      0.74359312397421     11.35774225499080
  C   15.09645461544010      0.76121688307438     12.82655427387192
  O   15.59153597355363     -0.53810033760198     13.13294498436692
  C   16.05055357647868     -0.63384157243849     14.48069204574150
  H   16.40677945982976     -1.65912411755379     14.61760930939453
  H   15.23741403567251     -0.42755359394787     15.19789912872544
  H   16.87832904058709      0.07023045917811     14.67025555526109
  H   15.87697241248629      1.52530881261790     13.00517450845957
  H   14.23310342169396      1.00834041784661     13.47439630991311
  H   15.55757515176014      0.59800597429828     10.72694887508374
  H   14.01453840087195     -0.12141031736244     11.21616370490291
  H   13.02983676772613      2.15884656527100     11.61099626975186
  H   14.56544914416603      2.90920527302170     11.14500629920729
  H   12.94913579422805     -0.29847535605743      9.48629284385888
  H   14.12234191320175      0.07540079541313      8.21150311321141
  H   12.24259780893856      0.88415068683317      6.71603991705379
  H   11.83717567483922     -0.74735133487540      7.29999902241628
  C   9.18656450692703      0.70094307794013      7.14629320894421
  C   7.78184913034485      0.78635753422681      7.76470104252980
  C   6.64382862873353      1.06283846527001      6.77449659700777
  O   5.63673147973048      1.71759030191928      7.54664602455216
  C   4.43755922757161      1.99084159593791      6.81961871521197
  H   4.63538981950462      2.64228810824050      5.95114855102218
  H   3.77482110874010      2.50364474863713      7.52268810469917
  H   3.96430367244640      1.06002500395104      6.46735849699877
  H   6.98815247718196      1.71931072945350      5.95344066668832
  H   6.25101158275027      0.13633203136170      6.32197938802136
  H   7.75153076490007      1.61984558543245      8.47427485505305
  H   7.56353069573316     -0.11888785245034      8.34646547934825
  H   9.37363604314806     -0.28525132371054      6.69620286905224
  H   9.32391259392505      1.44985471924752      6.35252451551485
  C   10.18471563391036     -0.02885537295505      9.86379807912793
  C   10.23642268099509     -1.55905159678362      9.67470551057491
  C   10.70650500972545     -2.24147063350643     10.96196533349304
  O   12.01676676280001     -1.74928609972312     11.25327071796568
  C   12.55645184697564     -2.33681520637295     12.44316579287212
  H   11.91541038125190     -2.11742023287761     13.31358192152887
  H   13.54820289591891     -1.90028860941834     12.59739420999344
  H   12.64570926837393     -3.43009128818086     12.33443738173371
  H   10.02268761695207     -2.01630544603073     11.80083344950676
  H   10.73268538339910     -3.33693308868068     10.82876200431597
  H   10.94116206964820     -1.83947365348385      8.88012433648447
  H   9.25234466116170     -1.95322739673820      9.38682754403356
  H   9.22504699244120      0.29108509482304     10.29349673679693
  H   10.94320629113720      0.28112127010815     10.59527067922894
