139
QM: 39 at, MM: 100 at, Links: 6
Fe   12.855500    5.345900    0.000000
N    13.416300    6.812800    1.228500
N    13.775300    4.032400    1.165100
N    11.112100    5.011300    0.998600
H    10.371500    5.249300    0.386000
H    11.049100    4.036900    1.161400
C    13.665600    8.882500    2.234900
H    13.581100    9.814300    2.397700
C    14.338200    8.000700    2.993800
H    14.831200    8.192400    3.783500
C    13.097900    8.157900    1.131700
C    14.168700    6.705700    2.375700
C    12.343100    8.732800    0.115500
C    14.436800    4.269300    2.349300
C    14.915800    3.032000    2.927800
H    15.382500    2.932100    3.749400
C    14.570500    2.049900    2.072100
H    14.753900    1.123100    2.175500
C    13.872600    2.662800    0.972300
C    14.657000    5.520800    2.916800
N    12.294700    3.879100   -1.228500
N    11.935700    6.659500   -1.165100
C    12.045400    1.809400   -2.234900
H    12.129900    0.877600   -2.397700
C    11.372700    2.691100   -2.993800
H    10.879800    2.499500   -3.783500
C    12.613100    2.533900   -1.131700
C    11.542200    3.986200   -2.375700
C    13.367900    1.959100   -0.115500
C    11.274200    6.422500   -2.349300
C    10.795100    7.659900   -2.927800
H    10.328400    7.759800   -3.749400
C    11.140500    8.642000   -2.072100
H    10.957100    9.568800   -2.175500
C    11.838400    8.029000   -0.972300
C    11.054000    5.171100   -2.916800
N    14.598800    5.680600   -0.998600
H    15.339500    5.442600   -0.386000
H    14.661900    6.655000   -1.161400
O    17.618400    5.459300    7.739900
O    11.059200   14.250000    0.268100
O    10.218400    1.008200    4.365800
C    19.018400    5.216500    7.705600
H    19.198200    4.425700    7.154500
H    19.344800    5.062100    8.616200
H    19.475300    5.993900    7.321700
N     9.941800    3.567900    3.141300
C    17.592200    5.592700    5.311200
H    18.541000    5.628900    5.259500
C    16.967600    5.510600    6.536400
C     9.003500    1.409300    3.741700
H     8.241500    0.970700    4.197000
H     9.006800    1.111900    2.798000
C     9.765500   14.656000    0.677500
H     9.091600   14.204400    0.127600
H     9.678600   15.626300    0.569700
H     9.631300   14.418100    1.619000
C    12.532100   12.510000   -0.248600
H    13.136200   13.162400   -0.580700
C    10.444600   11.947800    0.787500
H     9.608700   12.208400    1.153700
C    16.829800    5.623600    4.155200
H    17.269400    5.682700    3.316100
C    11.318600    1.671100    3.751600
H    11.383000    1.386900    2.805700
H    12.156200    1.403600    4.206900
C    11.314400   12.901500    0.290400
C     8.818900    2.905500    3.791200
H     7.976800    3.152100    3.333700
H     8.756500    3.202600    4.733800
C    12.010600   10.194400    0.198000
C    15.450400    5.571200    4.182700
C    10.804200   10.607900    0.745700
H    10.208800    9.957000    1.099900
C    12.863600   11.171700   -0.302500
H    13.691500   10.912000   -0.689600
C    15.592200    5.476200    6.587000
H    15.152900    5.431600    7.428400
C    11.176700    3.169700    3.812100
H    11.156700    3.467200    4.755800
H    11.951800    3.598200    3.368800
C    14.844700    5.507600    5.422300
H    13.897000    5.485100    5.477300
C    10.853300    5.686500    2.278900
H    10.599700    6.627100    2.102900
H    11.684400    5.691300    2.815600
C     9.744900    5.011600    3.080700
H     9.733500    5.381400    3.999100
H     8.869600    5.206800    2.660500
O     8.092600    5.232600   -7.739900
O    14.651800   -3.558100   -0.268100
C     6.692600    5.475300   -7.705600
H     6.512800    6.266200   -7.154500
H     6.366200    5.629800   -8.616200
H     6.235700    4.698000   -7.321700
C     8.118800    5.099200   -5.311200
H     7.170000    5.062900   -5.259500
C     8.743400    5.181200   -6.536400
C    15.945500   -3.964100   -0.677500
H    16.619400   -3.512500   -0.127600
H    16.032300   -4.934400   -0.569700
H    16.079700   -3.726200   -1.619000
C    13.178900   -1.818200    0.248600
H    12.574700   -2.470500    0.580700
C    15.266400   -1.255900   -0.787500
H    16.102200   -1.516600   -1.153700
C     8.881200    5.068300   -4.155200
H     8.441600    5.009200   -3.316100
C    14.396600   -2.209700   -0.290400
C    13.700400    0.497500   -0.198000
C    10.260600    5.120600   -4.182700
C    14.906800    0.084000   -0.745700
H    15.502200    0.734800   -1.099900
C    12.847400   -0.479900    0.302500
H    12.019500   -0.220200    0.689600
C    10.118800    5.215700   -6.587000
H    10.558100    5.260200   -7.428400
C    10.866300    5.184300   -5.422300
H    11.814000    5.206700   -5.477300
O    15.492600    9.683700   -4.365800
N    15.769200    7.124000   -3.141300
C    16.707500    9.282600   -3.741700
H    17.469500    9.721200   -4.197000
H    16.704200    9.580000   -2.798000
C    14.392400    9.020700   -3.751600
H    14.328000    9.305000   -2.805700
H    13.554800    9.288300   -4.206900
C    16.892100    7.786300   -3.791200
H    17.734200    7.539800   -3.333700
H    16.954500    7.489200   -4.733800
C    14.534300    7.522100   -3.812100
H    14.554300    7.224700   -4.755800
H    13.759200    7.093700   -3.368800
C    14.857700    5.005400   -2.278900
H    15.111300    4.064800   -2.102900
H    14.026600    5.000500   -2.815600
C    15.966100    5.680200   -3.080700
H    15.977500    5.310500   -3.999100
H    16.841400    5.485100   -2.660500

QM/MM links (counting starts at zero)
  3   83
 12   70
 19   71
 28  109
 35  110
 36  133
