101
QM: 23 at, MM: 78 at, Links: 6
Fe    3.607100    1.215000    2.673500
O     3.794400   -0.429500    1.366500
O     4.032000   -2.204700    2.678600
O     2.002600    1.866100    1.380100
O     2.460100    0.788100   -0.521400
H     2.937100    0.321600   -0.012400
O     4.944300    2.188800    1.275900
O     6.871400    1.143600    1.669300
H     6.462500    0.900300    2.361200
O     3.331800    3.046800    3.606800
O     3.279100    2.765400    5.818100
H     3.759100    2.103100    5.628100
O     2.093700    0.417900    3.897100
O     2.286000   -1.735000    4.402500
H     2.846900   -1.725400    3.777500
O     5.320700    0.585000    3.720900
O     4.671400    0.701400    5.836900
C     4.131600   -1.642900    1.575200
C     1.808800    1.684200    0.185900
C     6.104500    1.950800    0.966500
C     3.008900    3.428700    4.738200
C     1.727700   -0.569200    4.499800
C     5.435900    0.276100    4.946500
C     4.694000   -2.460700    0.395500
C     6.074500   -2.761100    0.697900
H     6.462200   -3.284800   -0.035000
H     6.123100   -3.276300    1.529500
H     6.575400   -1.925400    0.800800
C     4.614100   -1.739200   -0.862500
H     4.987400   -2.292500   -1.581000
H     5.124800   -0.905600   -0.794600
H     3.678000   -1.532900   -1.062200
C     3.966900   -3.721700    0.286100
H     4.327400   -4.243200   -0.461100
H     3.017600   -3.538700    0.127600
H     4.067400   -4.230500    1.117800
C     0.811200    2.504000   -0.605600
C     1.590400    3.380000   -1.546000
H     2.112700    2.819300   -2.159400
H     2.197000    3.953400   -1.033400
H     0.972900    3.938600   -2.062700
C    -0.171700    1.591100   -1.315400
H     0.314200    1.002900   -1.928900
H    -0.813500    2.132700   -1.819800
H    -0.650100    1.049400   -0.654600
C     0.009200    3.399000    0.370500
H     0.623900    3.999900    0.842000
H    -0.459300    2.835200    1.021100
H    -0.642900    3.929000   -0.133800
C     6.768100    2.576000   -0.242900
C     5.719400    3.252000   -1.127300
H     5.090800    2.578100   -1.461600
H     6.163800    3.688900   -1.883600
H     5.232400    3.921600   -0.603200
C     7.525200    1.511700   -1.054800
H     6.888100    0.852700   -1.401900
H     8.177800    1.063200   -0.477600
H     7.991700    1.941200   -1.803300
C     7.764800    3.613800    0.290300
H     7.285100    4.285600    0.819300
H     8.214800    4.051800   -0.461100
H     8.431500    3.167400    0.854300
C     2.308400    4.748900    4.971900
C     1.226400    4.578600    6.033700
H     0.554900    3.939600    5.716600
H     0.799200    5.444000    6.206600
H     1.631000    4.243200    6.861200
C     3.349200    5.741200    5.484000
H     4.041000    5.870300    4.802600
H     3.757800    5.392100    6.303300
H     2.915100    6.599200    5.675500
C     1.689900    5.252500    3.668400
H     1.033500    4.600800    3.347200
H     2.394500    5.366700    2.997300
H     1.247100    6.111500    3.828900
C     0.585800   -0.502500    5.501500
C    -0.395700    0.592400    5.084700
H    -0.814200    0.350200    4.232400
H     0.084100    1.440900    4.983800
H    -1.088700    0.688700    5.770200
C     1.224100   -0.131200    6.843300
H     1.839700   -0.841000    7.118500
H     0.523200   -0.025400    7.520000
H     1.716200    0.710900    6.748000
C    -0.138700   -1.836500    5.615800
H    -0.551400   -2.058700    4.755300
H    -0.834500   -1.772000    6.305400
H     0.500400   -2.535800    5.862800
C     6.532600   -0.704600    5.382500
C     5.834500   -1.948700    5.925600
H     6.505600   -2.599300    6.218900
H     5.279800   -2.346400    5.220500
H     5.267700   -1.700000    6.686200
C     7.431500   -1.091800    4.225400
H     8.116100   -1.718000    4.539100
H     7.864000   -0.288800    3.866000
H     6.896500   -1.517000    3.524300
C     7.366900   -0.042300    6.494800
H     8.069500   -0.659100    6.787100
H     6.785400    0.174600    7.252300
H     7.775900    0.778600    6.151000

QM/MM links (counting starts at zero)
 17   23
 18   36
 19   49
 20   62
 21   75
 22   88
