119
QM: 23 at, MM: 96 at, Links: 8
Fe    7.185200    9.911400   22.731900
B     5.231800    7.781900   23.410100
B     9.146200   12.023600   22.020100
O     4.778500    8.371000   22.141200
O     8.781400   11.364000   20.774300
O     6.574600    7.126600   23.250500
O     9.784900   11.111900   22.970600
O     5.237800    8.765700   24.500400
O     7.969500   12.687600   22.653000
O     5.035400    8.960100   19.365600
O     6.929600   10.728800   18.692800
N     5.686200    9.274100   21.624500
N     7.706500   10.476700   20.985100
N     7.551300    8.098800   23.114700
N     9.025000    9.981300   23.187900
N     5.968600    9.887700   24.190400
N     7.083600   11.739900   23.178400
C     5.754100    9.461300   20.391700
C     6.915100   10.250600   19.955500
C     8.752300    7.743100   23.578100
C     9.663700    8.876600   23.513000
C     5.605000   10.998100   24.743200
C     6.398800   12.153300   24.233800
F     4.364100    6.785300   23.733600
F    10.053900   13.016000   21.739100
C     3.746000    8.460300   19.521900
H     3.765400    7.702700   20.158700
H     3.423600    8.117500   18.649500
C     2.747400    9.543400   20.044900
H     2.877100    9.667300   21.017600
H     2.934000   10.406200   19.597800
C     1.283400    9.130100   19.771200
H     1.134300    9.062400   18.793100
H     1.108900    8.241400   20.172200
C     0.316300   10.170000   20.372700
H    -0.599900    9.965400   20.090900
H     0.562300   11.065800   20.058400
H     0.372100   10.139700   21.350900
C     8.108800   11.214200   18.134700
H     8.474800   11.907000   18.741600
H     7.884600   11.659200   17.281200
C     9.153500   10.242000   17.880000
H     8.815400    9.562200   17.243300
H     9.382500    9.779600   18.725400
C    10.427200   10.893000   17.294700
H    10.749600   11.611700   17.896200
H    11.144600   10.217500   17.202600
C    10.076900   11.469100   15.934600
H    10.891300   11.800400   15.501000
H     9.441900   12.208000   16.045700
H     9.672200   10.770600   15.379100
C     9.072300    6.425200   24.160100
C     8.743900    5.261400   23.475600
H     8.313600    5.313300   22.629700
C     9.044400    4.021300   24.028700
H     8.819000    3.226300   23.561800
C     9.673400    3.946400   25.265800
H     9.878200    3.099500   25.642700
C    10.001800    5.111600   25.950200
H    10.432000    5.059800   26.797000
C     9.701300    6.350300   25.397200
H     9.926700    7.146800   25.864900
C     6.465500   13.455300   24.854200
C     6.648500   13.534500   26.229900
H     6.692100   12.739500   26.748200
C     6.769700   14.774600   26.845200
H     6.895700   14.827900   27.785900
C     6.705400   15.936900   26.084400
H     6.787900   16.785300   26.507000
C     6.522400   15.859100   24.709600
H     6.478800   16.652700   24.190400
C     6.401300   14.617600   24.094200
H     6.276400   14.564300   23.155400
C    11.128900    8.781500   23.681300
C    11.805100    9.759500   24.400900
H    11.324000   10.482500   24.786500
C    13.184300    9.680300   24.555700
H    13.646000   10.348600   25.046600
C    13.887200    8.623100   23.990700
H    14.830000    8.568300   24.095600
C    13.210900    7.643700   23.271400
H    13.692000    6.920600   22.884400
C    11.831800    7.722900   23.116600
H    11.370000    7.054600   22.624300
C     4.503400   11.182500   25.725900
C     4.301000   10.262100   26.748200
H     4.858500    9.495900   26.813200
C     3.284200   10.463800   27.673500
H     3.144900    9.835800   28.371200
C     2.468600   11.585800   27.576700
H     1.773000   11.724000   28.208600
C     2.671000   12.506100   26.554500
H     2.113600   13.272400   26.488100
C     3.687800   12.304500   25.628900
H     3.827200   12.932500   24.930100
C    11.652400    1.061500   27.286800
H    11.780900    1.348100   28.184200
C    12.699500    1.133500   26.377000
H    13.545400    1.469100   26.650600
C    12.510400    0.714400   25.065600
H    13.226700    0.763400   24.442400
C    11.274300    0.223200   24.663200
H    11.144600   -0.063400   23.767700
C    10.226000    0.151200   25.575000
H     9.380100   -0.184400   25.298600
C    10.415100    0.570400   26.886400
H     9.698800    0.521400   27.506800
C     9.380100    7.289400   20.015100
H     9.571600    8.055600   20.540700
C     8.105200    6.736300   20.030800
H     7.425300    7.123700   20.570500
C     7.824000    5.614300   19.259100
H     6.952700    5.236900   19.270000
C     8.817800    5.048300   18.468000
H     8.626300    4.282000   17.942300
C    10.092700    5.601300   18.451700
H    10.772600    5.213900   17.912500
C    10.373900    6.723300   19.223900
H    11.245200    7.102100   19.213100

QM/MM links (counting starts at zero)
  1   23
  2   24
  9   25
 10   38
 19   51
 20   73
 21   84
 22   62
