34
Coordinates from ORCA-job CIKZON_-1_5_tpss_d4_lanl2dz_631gpol_Mn3.opt
  Mn  3.01758206745736      3.17091327332449      8.78541924267688
  O   4.88610410209137      3.29916285720514      8.51192761153678
  O   4.72100307548265      0.42793203628250      6.38339391076531
  N   3.18098484886558      1.58581603064858      7.71142170752927
  N   1.23196615085845      2.49330973134045      9.02363820179291
  O   6.60653045202567      2.38675680042290      7.34170601940798
  O   2.46653975723459      4.47254578692311     10.05998339785869
  O   -0.80641545882077      3.02572788774437     10.04325414315014
  O   0.63608492527578      5.25781094252974     11.14950866585673
  C   5.43149882664254      2.40143042016224      7.68394351850663
  C   4.41942824764873      1.33512336656426      7.16585612183939
  C   1.17895525303968      4.43293549021428     10.42567067418407
  C   0.39134676225130      3.23238320047303      9.82179607336724
  N   2.38076228955033      4.52934885900234      7.06715416260378
  C   1.84615763915029     -0.28093071366253      6.71095286621121
  H   2.69452929465866     -0.66704137090407      6.15669053939548
  C   0.58457872642961     -0.88542669369315      6.63377788420634
  C   -0.50226977870343     -0.37579485856370      7.36014279782566
  C   -0.35451871088135      0.74918336921182      8.18160056961591
  H   -1.18728983658547      1.14994214780140      8.74879645258242
  C   0.90109641078741      1.36660256312411      8.26617654741810
  Cl  0.39505212194193     -2.29948273142343      5.59549783946236
  Cl  -2.09197772825506     -1.13466468109142      7.25657457790785
  C   2.09024697799495      4.02649792543693      5.85066512333915
  H   2.27261035305436      2.96144589433243      5.72431323474608
  C   1.58177575041365      4.81592703583540      4.81573639531777
  H   1.35756817362138      4.36648331089740      3.85063103359607
  C   1.36819699255915      6.17879007162447      5.05260049755497
  H   0.97102826522241      6.82130646880406      4.26776909231176
  C   1.66897556459009      6.70124458414384      6.31600530171556
  H   1.51401849798549      7.75364622722045      6.54472042235917
  C   2.17117860582350      5.84197948598956      7.29712605932375
  H   2.40688913274930      6.17993290307392      8.30424255958745
  C   2.00628224783978      0.84826237900492      7.52510675444686
