40
Coordinates from ORCA-job CIKZON-CH3OH_-1_3_tpss_d4_lanl2dz_631gpol_Mn3.opt
  Mn  2.81571304217726      3.39732845131912      8.55555206371546
  O   4.63954923762138      3.77381486966224      8.12953198921436
  O   4.71425288237648      0.82119819601767      6.11781167745007
  N   3.10518411828060      1.85009431486340      7.47168005813245
  N   1.07887719375903      2.62572784183331      8.76107698871761
  O   6.40397857782899      3.01313529898248      6.92016018548130
  O   2.16411549666384      4.67545851318037      9.85782124892704
  O   -0.99234038255099      2.99059614263680      9.78537750306339
  O   0.26648661320813      5.30072973779130     10.94029604196781
  C   5.24098818655330      2.91748331370632      7.30150206103312
  C   4.33546683306341      1.72845111861446      6.87036292196483
  C   0.87156632749695      4.54778127220995     10.18550887662632
  C   0.18273111530967      3.30093544162269      9.55343227950540
  N   2.26474245049972      4.51451098387586      7.09365291473585
  O   3.43772474694396      2.48401123535317     10.31953017140522
  C   1.96019038366730     -0.18818803193383      6.58548518656264
  H   2.83573573393611     -0.50471456456242      6.02922576119017
  C   0.77127427182343     -0.92579236219552      6.56437286247694
  C   -0.35548100976032     -0.49749407992289      7.28552938016008
  C   -0.31934241583682      0.67893827761241      8.04259275021808
  H   -1.18437092470316      1.02264291847931      8.59908831469257
  C   0.86631174128325      1.42945146995496      8.07878793650135
  Cl  0.71928954995801     -2.40662040028111      5.60389630253116
  Cl  -1.85508614874936     -1.42945098147871      7.25416799089560
  C   1.43183061751743      4.10315084256613      6.10213380286522
  H   1.08729061554729      3.07601323626005      6.16515776535834
  C   1.04484255762882      4.94981575499775      5.06633384909569
  H   0.37562033946226      4.57061838254279      4.29703107718680
  C   1.52425299456842      6.26580754691908      5.03312507270946
  H   1.23582670560942      6.94600180660603      4.23376341140911
  C   2.38720591551146      6.68311340726981      6.05645917653360
  H   2.79129929789024      7.69298455711305      6.07979176462993
  C   2.73748826945924      5.79038272918765      7.06452264211350
  H   3.40350755110649      6.05851542410891      7.87795653054775
  C   2.01609878815408      0.99081849579341      7.34466203321534
  C   4.81922769632159      2.09334267599968     10.50691414218739
  H   5.49716364554421      2.92193281965796     10.27701434653543
  H   4.94983654337273      1.73855965075350     11.53762161744201
  H   4.99288060855067      1.27346463821244      9.80640307007992
  H   3.22326023290532      3.27738905467018     10.86790623092110
