82
Coordinates from ORCA-job BAYLAQ-oxo_1_1_tpss_d4_lanl2dz_631gpol_Fe2.opt
  C   6.28180139312814      7.41754062423988      4.00721462160960
  H   5.67565397516333      7.74898723529816      4.84136123403532
  C   7.47438836307934      8.05875695268291      3.67705599639209
  H   7.78930965760496      8.93268774221222      4.24075026788099
  C   8.24470057564404      7.54947156960101      2.62613278019068
  H   9.17980288442235      8.02627981964137      2.34128257612685
  C   7.80688201816800      6.39745598953819      1.96628272999428
  H   8.39033477068932      5.94995228619084      1.16495170545972
  C   6.59596979715592      5.81269263803779      2.34380807730661
  C   6.03941965783343      4.57356689691902      1.70253862076191
  H   5.36609242918784      4.85551479864058      0.88686699143012
  H   6.83333689907854      3.93149853023730      1.30520285738404
  C   6.11285472041867      3.10112339199428      3.73307891336494
  H   6.56734558245400      3.89782018280752      4.33079469210314
  H   5.42760139550275      2.56622186531488      4.39659470773482
  C   7.18483719524095      2.17268094686249      3.20774123605952
  C   8.40957769896275      2.68327342663681      2.73652089727375
  H   8.58205539469020      3.75996193679277      2.74023553302411
  C   9.42601231366410      1.82336183888705      2.30468092251043
  H   10.36574932689742      2.23486952614319      1.94090286412360
  C   9.24310388986117      0.43563003800859      2.36600000273835
  H   10.03511848788079     -0.23447347761961      2.03766593484316
  C   8.04863195086992     -0.08655575666719      2.88028851394850
  H   7.91366294919349     -1.16329729376979      2.96338928990920
  C   7.03207509991496      0.77747456095925      3.30068621447427
  H   6.11569950846521      0.36421449993003      3.72425903495521
  C   2.57365218795269      3.46230848352406      5.39868477891828
  H   2.39305792327970      4.38508784808562      5.95843463144628
  H   3.56092733699853      3.09443220708246      5.69064991561905
  C   1.49880585981197      2.43575345621326      5.65428206685419
  C   1.81919337544730      1.06559580057647      5.69361272398833
  H   2.85831680017255      0.75166825376130      5.58757713583393
  C   0.82307667366393      0.10305052764971      5.89065695962300
  H   1.08669639262902     -0.95246528069173      5.92248133410679
  C   -0.50994583814183      0.50068222096919      6.06291802634092
  H   -1.28600719801707     -0.24618985874063      6.21820357009787
  C   -0.83723608099339      1.86342509196928      6.06389288596026
  H   -1.86594456352125      2.17750040166425      6.23031914694966
  C   0.16239389644587      2.82372879088425      5.86864666894468
  H   -0.09150869136584      3.88357719636148      5.90976226520558
  C   1.49629337147282      4.62232806037044      3.48833140833020
  H   0.58428167891960      4.05796232958628      3.71521323177209
  H   1.55527771530020      4.77830493457876      2.40887029822796
  C   1.51328060741755      5.95787314963732      4.17842469392309
  C   0.35621143114473      6.64221660612267      4.54978377233746
  H   -0.61581904730468      6.20224141715144      4.34151976964334
  C   0.47088157370321      7.89289880806571      5.16125276944364
  H   -0.41791152984126      8.45116381261687      5.44609211699136
  C   1.74710426554308      8.40885626645984      5.40920235477179
  H   1.88696169347545      9.37132813751202      5.89361296928986
  C   2.86046835986612      7.66337625118796      5.02592002162777
  H   3.86493479403715      8.02095229513306      5.21124867537433
  C   3.94591381262085      8.33089686481304      1.21364965096978
  N   5.83152306997334      6.34092202717406      3.33507632955043
  N   5.22582013018637      3.84223338789981      2.72858925701438
  N   2.71572666319108      3.87725434157773      3.93151252314677
  N   2.75121439008829      6.46992687997502      4.41202155037875
  O   3.58194306525173      5.79650164180115      1.88502371255082
  O   2.92991368682932      6.47194471975549     -0.37416117157841
  O   1.56438404950002      7.23371770718515      1.62631671860473
  O   4.79139370814131      4.96357602882239      5.23666310497396
  F   3.99354435871282      8.74893894195939      2.50936958312217
  F   5.21165752831345      8.03414396768622      0.82916094272004
  F   3.48872804823568      9.34052378203407      0.46032261609477
  S   2.84401434931857      6.83827879974720      1.03568311552595
  Fe  4.19277673277995      5.25554637656782      3.73977230472594
  C   1.85410679909427      2.00815301431259      2.36972731290064
  H   1.10263663750785      1.72102343351165      3.11400940377415
  H   1.39063866570845      2.73145818910734      1.68344873681329
  C   4.59864807791822      1.81187434060012      1.24408957032643
  H   5.36398581734230      2.11367433336304      0.51643941359042
  H   5.05962835641992      1.07021881707173      1.90514336568568
  C   3.06000213666134      2.66050245071137      3.07340285762688
  H   3.47902426614248      1.92924455847270      3.77675190057692
  C   4.13129664956548      3.03652782545986      2.04711451213736
  H   3.68661404943701      3.75489223777551      1.34896641398179
  C   2.31078508597436      0.78195558505540      1.55635924782715
  H   1.44091308302162      0.34325664598342      1.05066879580608
  H   2.70420777350006      0.01240633891095      2.23987190444792
  C   3.39066218759673      1.17152575054320      0.53364189160641
  H   2.97021499770746      1.87860593084835     -0.19834555421505
  H   3.72552089999157      0.28920710402294     -0.02697141794343
