87
Coordinates from ORCA-job BAYLAQ-CH3OH_1_3_tpss_d4_lanl2dz_631gpol_Fe2.opt
  C   6.20831813471225      7.53596314056724      3.71663070677394
  H   5.57385238648446      7.91230614869414      4.51099061208558
  C   7.38253746350503      8.19787468597200      3.36207450278722
  H   7.66120645633132      9.11412295103208      3.87605760049642
  C   8.17372818313586      7.66475568473510      2.33930938160463
  H   9.09368154259985      8.15693805028311      2.03226134430483
  C   7.76062291719776      6.47919363138318      1.72161983855029
  H   8.34700376726799      6.02641418685432      0.92519363874073
  C   6.56741289402088      5.87814595463674      2.12366715482803
  C   6.01151651985638      4.63715745931270      1.48232159279591
  H   5.33414948802625      4.94084793732034      0.67554912453571
  H   6.79898499778791      3.99219999405456      1.07389816209782
  C   6.02193575148625      3.23350783565458      3.55278198943278
  H   6.57606349725435      4.05160078333709      4.02622305803358
  H   5.32377389768331      2.84204764049721      4.29984799444959
  C   6.99142979614069      2.15474843196840      3.12228148337456
  C   8.24526521168923      2.49333119064354      2.58211918488903
  H   8.52681526022654      3.54251288124169      2.48499114618800
  C   9.15181032043950      1.49531097592768      2.20404499770307
  H   10.11790118411431      1.77116089623294      1.78544051549105
  C   8.82359096156571      0.14550932137571      2.38446411798086
  H   9.53012027983859     -0.63054659913296      2.09688292034137
  C   7.59348765741587     -0.20272493760682      2.95958009814766
  H   7.34551011767766     -1.24911297360333      3.12741543132074
  C   6.68731862793992      0.79740013974876      3.32772465005894
  H   5.73585433174709      0.52262709919187      3.78610435080306
  C   2.57802287816978      3.46984857444693      5.20022058653622
  H   2.31947363266203      4.38371142529429      5.74773727905850
  H   3.57964754266663      3.15782135400258      5.51603713759606
  C   1.55866749507660      2.38941719510153      5.46981089101821
  C   1.94535166864989      1.03796020878566      5.52285367436654
  H   2.99969052726818      0.77306152284427      5.43176994980407
  C   0.99219347401089      0.03006702227200      5.70734098232249
  H   1.30476162391151     -1.01170606439354      5.74846483103588
  C   -0.36140417856614      0.36444230707763      5.85108820300597
  H   -1.10364851292528     -0.41825806572709      5.99464803745768
  C   -0.75407707370157      1.70970987806334      5.83533065748764
  H   -1.80032418997320      1.97457321489418      5.97574586528804
  C   0.20192692040960      2.71568939349366      5.65288436599292
  H   -0.10266337297832      3.76258219049070      5.67245601255938
  C   1.48193843186767      4.62515946588846      3.29372484873548
  H   0.56530886559874      4.04620887339829      3.46148771589560
  H   1.59001722624133      4.82860727262813      2.22318978470232
  C   1.45828438549091      5.94461379282152      4.01432479492384
  C   0.28175499532458      6.59543293922813      4.37951071691375
  H   -0.67728274640059      6.13129282233595      4.16281075413446
  C   0.35708733146631      7.85431329061502      4.98274725785271
  H   -0.54813394362525      8.39112802757690      5.25668438690757
  C   1.61800691911783      8.41036130274724      5.22140081425289
  H   1.72887043327433      9.38784610570201      5.68329129487393
  C   2.75215921291382      7.69197056112040      4.84626162626897
  H   3.74572058909043      8.09504579242208      5.00838998438707
  C   3.81224328552772      8.51502473856635      1.02992927957269
  N   5.78954140998140      6.40226693625166      3.11414272024189
  N   5.17787969163187      3.92098364189723      2.49554401180938
  N   2.70246207937042      3.88229726198986      3.74105821793656
  N   2.69084981263624      6.48012598476678      4.25145126441527
  O   3.49163342335262      5.95822202016238      1.46409059926259
  O   2.60230774726685      6.87423169655648     -0.65564460784902
  O   1.46398114297110      7.39754862915328      1.54454032483954
  O   4.94252761236872      5.35611774507594      5.73695360935400
  F   3.88749081630878      8.86375221733652      2.35045213120961
  F   5.07325265630164      8.21630509285429      0.62111071069278
  F   3.38212418003829      9.58614970003764      0.34479647864111
  S   2.67837521931998      7.05392523186301      0.79255364177720
  Fe  4.13246512150731      5.32168737890686      3.47333242979844
  C   1.84845571267406      2.00214852164599      2.18183017232967
  H   1.12981834594942      1.67005472201052      2.93988316743381
  H   1.34009085967657      2.72758367611116      1.53069672934170
  C   4.55426252214745      1.93306474752773      0.94728623352536
  H   5.27506485919097      2.28867669544399      0.19871625817773
  H   5.06697706240549      1.18246609954801      1.55856600210312
  C   3.05223335153178      2.67937792113857      2.86489469834229
  H   3.50994216537778      1.94871650072808      3.54552760550624
  C   4.08693243384153      3.11185859150945      1.81828802019648
  H   3.60431312867519      3.85495638061816      1.16906019814274
  C   2.31857125856915      0.81685695870448      1.31723906849433
  H   1.44680693251568      0.35538583720651      0.83552408789762
  H   2.77410053930383      0.04652279744849      1.96038641173551
  C   3.33774071358741      1.28117882762152      0.26367121617869
  H   2.86110832800340      2.00245242283595     -0.41832444700137
  H   3.67384213106342      0.43344410105607     -0.34747881384653
  C   6.17989846362603      5.59907734555643      6.44462294967867
  H   6.98438186420552      5.38083093113356      5.73839858933251
  H   6.25781674119689      6.64702150820474      6.76413379586081
  H   6.26694551126854      4.93574265847394      7.31491305585586
  H   4.19817109542074      5.61675156660578      6.31357613781876
