87
Coordinates from ORCA-job BAYLAQ-CH3OH_1_5_tpss_d4_lanl2dz_631gpol_Fe2.opt
  C   6.65885402430350      7.52497760183257      3.59697692633873
  H   6.12188278662534      7.94611995861702      4.44280953905097
  C   7.83531610624676      8.09602432100639      3.11557570153294
  H   8.23726401637014      8.99131065106362      3.58266720879401
  C   8.47177746709865      7.49159479215575      2.02461467726012
  H   9.38981114050358      7.91082623439284      1.61833006419795
  C   7.91619037960348      6.33561762130450      1.46786285276410
  H   8.38880322768836      5.83622279209578      0.62457938101629
  C   6.72783647635727      5.82334492601934      1.99816466746066
  C   6.04104290258792      4.60823785274431      1.41499659412978
  H   5.37154994064979      4.94917110906524      0.61523382297021
  H   6.78211807882351      3.92180937068939      0.98122414207124
  C   6.01526486020715      3.28144351677530      3.50882645616377
  H   6.57982801756881      4.09826182624690      3.97558848530990
  H   5.30557501156536      2.91277999516747      4.25743897652212
  C   6.98001283144511      2.17709986585079      3.12413623412438
  C   8.23880379346572      2.48383868509147      2.57648571273150
  H   8.53260993279991      3.52613053406503      2.44684258786149
  C   9.13408628990472      1.46493432747099      2.22770607671583
  H   10.10358243012059      1.71761518115123      1.80199315108668
  C   8.79011879169277      0.12455427466704      2.44464363591944
  H   9.48748191895067     -0.66765591248950      2.17938540157910
  C   7.55438620837782     -0.19225199704363      3.02570730081936
  H   7.29247695979255     -1.23072517155179      3.22021613931701
  C   6.65983151573503      0.82898156866838      3.36375071451744
  H   5.70221881961506      0.57770429178622      3.82328083083090
  C   2.61914048691358      3.52522122435596      5.19631804413438
  H   2.36092884224198      4.43848110193496      5.74712179694836
  H   3.63354002110312      3.22722512307613      5.49040782573299
  C   1.63096616455331      2.42699016913201      5.51435599722279
  C   2.04675991970249      1.08429668316957      5.56809849239036
  H   3.10359577456336      0.84039940707522      5.45021010818447
  C   1.11991347325658      0.05854358320323      5.78530496674184
  H   1.45513852483232     -0.97621571419041      5.82632390577847
  C   -0.23627109749377      0.36606187655614      5.96099482879349
  H   -0.95817799158828     -0.43049712038978      6.12997344579420
  C   -0.65713890333325      1.70266634635896      5.94253125010852
  H   -1.70514568423888      1.94687858999590      6.10606296336192
  C   0.27266944897078      2.72677121138553      5.72717945229564
  H   -0.05373404080750      3.76707554194064      5.74193486536659
  C   1.44837454056234      4.59991170662958      3.29261324948775
  H   0.56454594008185      3.96294134154805      3.42709307245100
  H   1.56073693243981      4.82636891093245      2.22537800705623
  C   1.27150296549878      5.91102214245672      4.01849949140761
  C   0.01228204047739      6.43929134034567      4.30850344091098
  H   -0.88144798044245      5.87510591415340      4.05121109406288
  C   -0.07598035445897      7.70411611732953      4.89753168218893
  H   -1.04692224627714      8.14347996535874      5.11513402416104
  C   1.10318018584374      8.39465152137502      5.20056673269773
  H   1.08109778125134      9.37997130803810      5.65874978840417
  C   2.32439069937839      7.79373951379513      4.90013022449303
  H   3.26765048512146      8.28965644042552      5.11439548128726
  C   3.93001987204476      8.63128866579877      1.34724744460455
  N   6.11266351222594      6.41697755837922      3.04974697811311
  N   5.19793116443197      3.94993333402104      2.43795302650387
  N   2.69958100201451      3.91897100258489      3.73913069276809
  N   2.41380468080331      6.57666414095904      4.31853650850604
  O   3.56750557065207      6.06174860234515      1.51418352815356
  O   2.81830895485310      7.17251145979931     -0.56556085246108
  O   1.53958092914154      7.51019699855849      1.59654471332187
  O   4.83433564701225      5.87703127654666      5.60183455139444
  F   4.07557628762348      8.69251509603557      2.71605398911314
  F   5.16567610608172      8.44582716834949      0.82677378371595
  F   3.45514098716491      9.81455623686849      0.93549292897087
  S   2.79312674317821      7.22640981203704      0.89159378560006
  Fe  4.15383844677274      5.64054340790742      3.46996519634628
  C   1.87005940258993      2.01711522933543      2.21094993439471
  H   1.16224893092652      1.69712222486791      2.98506039627518
  H   1.34427070952171      2.71712471153951      1.54572687827933
  C   4.53789494192765      1.96529052654838      0.93231794895817
  H   5.23737779039081      2.31590751281453      0.16102208697636
  H   5.07788652101782      1.23393963406940      1.54446076922898
  C   3.07058730669719      2.73133920223557      2.86813469179679
  H   3.54858077718756      2.00970109237491      3.54419468947405
  C   4.09239165477327      3.16068523511571      1.79997595346877
  H   3.59797928971158      3.89554238650358      1.14954289459461
  C   2.33830853611566      0.81653288881770      1.36996822111119
  H   1.46433132925831      0.32620248158005      0.92128593891198
  H   2.82454845548542      0.07201925141750      2.02104286421223
  C   3.32368679558242      1.27762878766981      0.28477244177804
  H   2.81703135986293      1.97683276245596     -0.39913452749129
  H   3.66273936687387      0.42574976206194     -0.31937615665966
  C   5.92917616561319      5.37224934961610      6.40854026933489
  H   6.82524199428061      5.46688482604141      5.79198383783731
  H   6.04008643354210      5.97940282731212      7.31451289747158
  H   5.76764949755635      4.31959437289302      6.67303684997434
  H   4.02036298083193      5.91283771170344      6.14223333287250
