83
Coordinates from ORCA-job BAYLAQ-OH_1_4_tpss_d4_lanl2dz_631gpol_Fe2.opt
  C   6.66252439848352      7.39103203850151      3.84712373548083
  H   6.12229705403632      7.77315386455492      4.70838179307575
  C   7.86374203010430      7.94982711366513      3.41285516045158
  H   8.27799965587820      8.81345244987684      3.92626972147579
  C   8.51521677538851      7.36851217488840      2.31807525943319
  H   9.45433896710214      7.77889931587927      1.95329089879791
  C   7.95706111573387      6.23761554822008      1.71317450348865
  H   8.45173523659530      5.74241851249878      0.88025911701986
  C   6.74287996060384      5.74024775197368      2.19466800207808
  C   6.05445586755794      4.52808241494661      1.62077036710983
  H   5.39859677221946      4.84466982611624      0.80137411214861
  H   6.79340371793044      3.81941421847800      1.22349065932236
  C   6.01731302082622      3.20756080692252      3.73655149478412
  H   6.49068448954913      4.02036284623967      4.29795565567528
  H   5.29556757072062      2.74746292048186      4.41657810137781
  C   7.05768958119658      2.19113465614213      3.31322936783842
  C   8.31922154886127      2.60513266415443      2.84753789922353
  H   8.55324872147785      3.66903068693979      2.79813593493206
  C   9.29186646974632      1.66586284508076      2.48359519677437
  H   10.26272675433077      2.00292932833903      2.12452416765977
  C   9.02383791018886      0.29617754366680      2.60316729431112
  H   9.78153382103559     -0.43463979038274      2.32722141051816
  C   7.78576013233832     -0.12926459880785      3.10364070226772
  H   7.58175269329139     -1.19137818011703      3.22653911795945
  C   6.81415579743134      0.81354387082428      3.45710618167072
  H   5.85902307668448      0.47618906523097      3.86310136810060
  C   2.58724283973188      3.45636092769497      5.37393113444491
  H   2.32196596368738      4.36739640024410      5.92518966821519
  H   3.59484365056944      3.15842725211615      5.68347347502714
  C   1.58231385807346      2.36491903228784      5.65952923748771
  C   1.98690479918717      1.01857656108768      5.71420105707026
  H   3.04429146261670      0.76803020303012      5.62011038985756
  C   1.04855443876823     -0.00140029653912      5.90791433765954
  H   1.37598219460773     -1.03849850610017      5.95208401910150
  C   -0.30867523022334      0.31464557239362      6.05879486295530
  H   -1.03916685639525     -0.47753475350664      6.21053834274973
  C   -0.71947346618451      1.65439209377830      6.04063973568267
  H   -1.76821960723222      1.90555101311018      6.18812525817121
  C   0.22207790458649      2.67240917414917      5.84896065828919
  H   -0.09724910090225      3.71496079878958      5.87035429301997
  C   1.47557345692613      4.56570527198974      3.45663379295527
  H   0.56675404941187      3.96655370526442      3.60266418685595
  H   1.58587227571546      4.77053974022072      2.38560237172428
  C   1.36486012570562      5.88305276823705      4.17921199342838
  C   0.14864912104784      6.46452302516526      4.53695514907028
  H   -0.78016867339968      5.94612541408578      4.31076875723923
  C   0.14758534945834      7.71736439372451      5.15838889477024
  H   -0.79103970841807      8.19545505374492      5.42919902009692
  C   1.36857577930508      8.34309622080226      5.43383741664495
  H   1.41256644800040      9.31211057767056      5.92341346036295
  C   2.54870722178907      7.69648130198653      5.07089114599329
  H   3.52501937496952      8.12988292251626      5.26721600404781
  C   4.03496938614995      8.57428198980433      1.44600847405137
  N   6.10902188594678      6.32771630350063      3.23080111605595
  N   5.20408716313302      3.89338314371009      2.65878488544272
  N   2.69503602152372      3.85353508943868      3.91808935859707
  N   2.54206123956398      6.49711514610097      4.44975510037622
  O   3.69949639162977      6.02142988994268      1.86644611469062
  O   2.93180880086048      6.87916633280848     -0.29258717785292
  O   1.64942678014496      7.47101375874917      1.81802688282287
  O   4.88477954858812      5.44865019861231      5.35218825602835
  F   4.17623765221161      8.76578043541313      2.79578294557819
  F   5.26183722224687      8.33945061185572      0.93541259169144
  F   3.53802741138098      9.69694553217153      0.91278393926320
  S   2.89991526261721      7.12854737382535      1.14198836359683
  Fe  4.20498208755427      5.60554887971464      3.69943695158299
  C   1.87145253773426      1.97103456364103      2.36954212595414
  H   1.15169201411049      1.65114661986012      3.13226428607000
  H   1.35849460209514      2.67690424831316      1.69994713291450
  C   4.56606524117632      1.91333171255853      1.14486062090147
  H   5.28289899976420      2.25951060251251      0.38814016219392
  H   5.09053638573553      1.18173684581663      1.76982982727811
  C   3.06628612176085      2.67433451274539      3.05101916165390
  H   3.53049225861663      1.94548774793653      3.72789121072884
  C   4.10337022205506      3.10809844874809      2.00449732214696
  H   3.62025366779111      3.84065785052202      1.34290051941500
  C   2.34983865506819      0.77229636507407      1.53203963400452
  H   1.48319531416715      0.29051605206281      1.06067575084172
  H   2.81548436897803      0.02128899599692      2.19036331575942
  C   3.36243264581033      1.23137320417903      0.47141321881580
  H   2.87531926415009      1.93300643733800     -0.22415702991577
  H   3.71268342780796      0.37891890244671     -0.12535305437665
  H   4.15288660891130      5.49167644234238      6.00547210779173
