82
Coordinates from ORCA-job BAYLAQ-oxo_1_5_tpss_d4_lanl2dz_631gpol_Fe2.opt
  C   6.59608436355272      7.42481547808586      3.87335431561069
  H   6.03980974586466      7.80496636918912      4.72530485318158
  C   7.79028645632005      8.00291382214869      3.44676405852566
  H   8.18313334489113      8.87640711549834      3.96005766107726
  C   8.46270542934840      7.42803336914493      2.36082513298460
  H   9.39774397027655      7.85390053475658      2.00360411263853
  C   7.93124123696953      6.28536587295574      1.75488544257694
  H   8.44070865534129      5.79802823852434      0.92642391347449
  C   6.72253527888181      5.76529336544597      2.22672339240496
  C   6.05763763809446      4.54573064090817      1.64097571304084
  H   5.38757324919578      4.86068367556997      0.83242614442595
  H   6.80874283330827      3.86068769784798      1.22654358496215
  C   6.07328695454667      3.17288327344898      3.72743747697422
  H   6.54549083471814      3.98237863574754      4.29530948875878
  H   5.36949186996624      2.68894588515484      4.41007257081850
  C   7.12362092426023      2.18440532772821      3.26530544566582
  C   8.36938198885731      2.63055156361439      2.78636103415873
  H   8.58299046930607      3.69936344007432      2.75156291349692
  C   9.35443444747142      1.71692028958267      2.39224732122694
  H   10.31252721820112      2.07880581591623      2.02335437701694
  C   9.11578332522678      0.34042917691944      2.49574524500662
  H   9.88329018164686     -0.37076054916470      2.19675578939689
  C   7.89548067983567     -0.11717162440308      3.01113243241577
  H   7.71531923632412     -1.18470771532398      3.12323206490086
  C   6.91106504134620      0.80013770197585      3.39459497945628
  H   5.97147795376318      0.43749563688199      3.81423524645661
  C   2.60006678864248      3.47261164988623      5.38726310202008
  H   2.39834852699424      4.39685413505526      5.93806713464950
  H   3.60132705669229      3.14063543120977      5.67861108131472
  C   1.56246838110613      2.41428888583142      5.67813742481097
  C   1.92509732960722      1.05569675373187      5.73241966393359
  H   2.97320246388711      0.77252624015174      5.62714589041622
  C   0.95909250024775      0.06505396887320      5.94177831176431
  H   1.25545993591115     -0.98137713959612      5.98600202009811
  C   -0.38585417809768      0.42272926145806      6.10861697821647
  H   -1.13832756766690     -0.34613606283329      6.27263526408684
  C   -0.75535953204033      1.77448127426540      6.09074433669804
  H   -1.79389544487811      2.05819877540498      6.25128350731979
  C   0.21433745638516      2.76281362259137      5.88384883208370
  H   -0.07235000097471      3.81468246018527      5.90806026827244
  C   1.47815720058296      4.55968675468822      3.45083789603977
  H   0.57952473895710      3.94894011625185      3.60678022545619
  H   1.58581492547980      4.75352530222195      2.37818232702002
  C   1.34954157834205      5.88126474773325      4.16320250510672
  C   0.12385432711984      6.45908503635875      4.49779583927120
  H   -0.80004060703881      5.93919118869858      4.25559587044737
  C   0.11128779502026      7.70967747217466      5.12240946725223
  H   -0.83279468382874      8.18533180040570      5.37828969789451
  C   1.32611769016665      8.33532408379377      5.42687547707972
  H   1.35839777238450      9.29955893418952      5.92666149573392
  C   2.51369508095913      7.69180113853237      5.08369230616315
  H   3.48612821597903      8.11651942231479      5.31310334103242
  C   4.03675225227886      8.53393433960942      1.44591621933615
  N   6.07173518484444      6.34770949790608      3.25533546550492
  N   5.23112433343143      3.87276934974204      2.67658572335833
  N   2.70345599077756      3.85700624644352      3.92253835738901
  N   2.51403996219724      6.50163385355549      4.45276055287875
  O   3.64956617556047      5.98672952507136      1.92414788852963
  O   3.02002329340996      6.80058022181117     -0.29834216360071
  O   1.63137141419851      7.44417835147193      1.72963180250422
  O   4.76781152495217      5.30223389474688      5.27954981493721
  F   4.12890860346085      8.75906659122737      2.79328589304367
  F   5.28358018832100      8.28431807756822      0.98684441499811
  F   3.56542938146461      9.64343249997769      0.86547989511938
  S   2.91275645609319      7.08293033184500      1.12696221300401
  Fe  4.21341835010711      5.54347870233411      3.76139131809469
  C   1.89005737146284      1.96434261028976      2.38408311896294
  H   1.16774806319948      1.65100109823974      3.14694712170934
  H   1.38122490803408      2.66679290146857      1.70813358942950
  C   4.58841839405780      1.89292765041844      1.16919119173270
  H   5.31166849215052      2.23326810053590      0.41580656432937
  H   5.10643596040362      1.16192356117365      1.79994500723638
  C   3.08301689891570      2.67007030976918      3.06655195276739
  H   3.54134170856261      1.94864782136650      3.75521925494428
  C   4.12585494963857      3.09206807625737      2.02148655357315
  H   3.64890293136934      3.82551357271097      1.35711664553736
  C   2.36937100270979      0.76004285877767      1.55507625660360
  H   1.50261923483031      0.27791310672942      1.08441889017129
  H   2.83174071096968      0.01140526386594      2.21830808053191
  C   3.38521978772045      1.21156046787403      0.49437572429425
  H   2.90206646539006      1.91086774934580     -0.20613213012028
  H   3.73609893203313      0.35548507605940     -0.09669019163650
