66
Coordinates from ORCA-job CABXOU-oxo_1_3_tpss_d4_lanl2dz_631gpol_Fe2.opt
  Fe  4.58177513885805      9.15524492798980      4.78781649564872
  P   5.09320808932848      7.29826823733351      6.00399669322245
  P   6.27549237751707      8.50731277438823      3.39379003771879
  C   6.89299968190520      7.00140736024663      5.67077891461173
  C   7.11934275869524      7.02129209554245      4.15045362788860
  C   5.02772490245017      7.33903258499844      7.84180551043286
  C   4.26159961588260      5.72677700235046      5.54812802722163
  C   5.97322590922126      7.94615629558145      1.67131069022746
  C   7.60875388387389      9.76620596649041      3.27593050362233
  C   3.32265410581371      8.15908885573183      3.68369616932948
  C   2.49547880023451      7.57699251880964      2.96537950132259
  C   1.53130987960092      6.90238039839578      2.16172107880110
  C   1.19365939597446      7.37989887362307      0.87293513853476
  C   0.24354612751365      6.71702094635970      0.09589734613672
  C   -0.40709335587722      5.56040403813094      0.56526134179721
  C   -0.06592829411597      5.08341191403489      1.84559945961759
  C   0.88150707096049      5.73617014367010      2.63348375197912
  C   -1.45870924093811      4.86479052310028     -0.26906284015038
  H   7.43485254598162      7.82685968049682      6.15342478593335
  H   7.22870216474085      6.05623308110929      6.12010650666642
  H   8.18897499187528      7.02968453612066      3.89940686537825
  H   6.68325616152318      6.12534766795685      3.68521496945327
  H   3.99203496494977      7.30701487627587      8.20116261080342
  H   5.50404715424924      8.26076776378542      8.19607378556417
  H   5.56199168931417      6.47394462021360      8.25758463144905
  H   3.18612925576596      5.81459848263862      5.74274186131340
  H   4.66779318837666      4.87679606996983      6.11268412728238
  H   4.37701826132508      5.55407118538681      4.47225835678102
  H   5.77904595967045      8.79539258282624      1.00866467272666
  H   6.84712830220842      7.40022300090125      1.29079371500644
  H   5.09306802072352      7.29227266123699      1.66644019638770
  H   7.25063332613178     10.63652389277982      2.71118463283873
  H   7.85740531868905     10.09912556510479      4.29045917301258
  H   8.50140444925117      9.36660836556337      2.77685794760831
  H   1.68808106281432      8.27132022678196      0.48954703642243
  H   0.00162109457707      7.10117064552554     -0.89477849279713
  H   -0.55116268509477      4.18536463569360      2.22731806264898
  H   1.13422868165704      5.34935689403969      3.61940619046671
  H   -2.46492044627517      5.23106408256263     -0.01393835262063
  H   -1.30559348290190      5.04733394915515     -1.33995439132105
  H   -1.45289816895040      3.78084102737081     -0.09861884949655
  P   3.93505357694478     10.89758070518956      3.48170320015091
  P   2.79065393225560      9.70968231718563      6.08775611051397
  C   2.12317287097537     11.15608188348671      3.77131817911978
  C   1.86368544096701     11.12446326309997      5.28610212771428
  C   4.06435079274006     10.88088105383301      1.64952987185049
  C   4.73327777121600     12.47188694004264      3.99339159086466
  C   3.19670334714021     10.39394413717272      7.74503700595762
  C   1.49653277469457      8.44177591366702      6.39508031946706
  O   5.67412085529256     10.03693032035700      5.73279277683061
  H   1.60774425731747     10.32680796889695      3.26976651556728
  H   1.78809499907445     12.10222836003324      3.32361275111768
  H   0.79153407618532     11.04856358611027      5.51237849164594
  H   2.23110609798596     12.04966206747212      5.75258530086527
  H   5.10967561643701     10.97171042984806      1.33050684325214
  H   3.64774457135094      9.93841135764685      1.27567959757019
  H   3.50049597266027     11.72203440075453      1.22409918782886
  H   5.80870033722135     12.41568943966865      3.78721714589055
  H   4.30741404991873     13.34023465724616      3.47331712904086
  H   4.62258518386616     12.59185026381464      5.07729597700801
  H   3.49473367070798      9.59916126610807      8.43651432918010
  H   2.33510040572348     10.92475831441907      8.17202071635990
  H   4.04256868168918     11.08277648977752      7.63153639681064
  H   1.91350978836228      7.60736895265401      6.97291335255636
  H   1.14594707637096      8.05422196619172      5.43196595836101
  H   0.65590519540132      8.86992299505020      6.95721763500493
