67
Coordinates from ORCA-job CABXOU-OH_1_6_tpss_d4_lanl2dz_631gpol_Fe2.opt
  Fe  4.74848837805713      9.38798940718242      4.73718109056030
  P   5.13165502078570      7.20528494043037      6.13898249419098
  P   6.55834788226728      8.32101095972646      3.23360912831429
  C   6.69384172252419      6.51362147096723      5.38605933808728
  C   6.65600621449015      6.56557539099944      3.84299299056259
  C   5.53198290386841      7.16649214545905      7.94379189406746
  C   3.95544747808401      5.79767496999971      5.92840489847289
  C   6.27230402537108      8.11560609270295      1.42439691258127
  C   8.29535887500029      8.92757974657780      3.36566957846951
  C   3.40867349530561      8.35240773808094      3.64178542497235
  C   2.62466124917488      7.70030866443403      2.92229957264738
  C   1.71677989838152      6.95629526848540      2.12172803884055
  C   1.29700835754691      7.43565849777182      0.85592956470517
  C   0.40219765522636      6.69953270199965      0.08155585088975
  C   -0.11200006283549      5.46707578094927      0.53049004941111
  C   0.30908301410398      4.99032568905142      1.78789465597030
  C   1.20353540197719      5.71432071090345      2.57322640242158
  C   -1.10712311032907      4.69101386722962     -0.30064824072853
  H   7.53494362026096      7.10987932136637      5.76901540195566
  H   6.84045362550926      5.48058203717432      5.73531811587835
  H   7.54204946945473      6.07097096391441      3.41848787188788
  H   5.77003630978794      6.03959088807112      3.45855178666440
  H   4.63663055528491      7.40171466298764      8.53391914280683
  H   6.29509832774882      7.92411941324641      8.16177471370386
  H   5.90563481377246      6.18063022786165      8.25310798820073
  H   3.02607563368553      5.99674544506094      6.47541238213778
  H   4.38503864398368      4.85362915120003      6.29073741755132
  H   3.70074715279014      5.70671704560541      4.86597532102808
  H   6.34058363819559      9.09010270552713      0.92430015558089
  H   7.00726838370481      7.43593823221373      0.97226966447078
  H   5.26190254554515      7.71757482052659      1.26890861618996
  H   8.36813090629546      9.91952992385812      2.90203206085531
  H   8.55638348378731      9.04289189305173      4.42440457172633
  H   9.00888468020414      8.24965336093123      2.87728036646454
  H   1.68355427872227      8.38564801414965      0.49103057870183
  H   0.09497093352730      7.08403070031456     -0.89060532469265
  H   -0.07159736222360      4.03653198136877      2.15223135394059
  H   1.51623269315226      5.33136069384356      3.54292529181901
  H   -2.13758266972114      4.96984912893286     -0.03196722953936
  H   -0.98037038160919      4.89486641184310     -1.37104253286679
  H   -1.00781440629546      3.61044266737008     -0.13841959552067
  P   3.69353024947501     11.37461326196915      3.43965746836259
  P   2.69554945464455      9.96245273295282      6.32806967500732
  C   1.90714896266826     11.32035574741243      3.95137540039905
  C   1.77703785792697     11.36123800325234      5.48911782305410
  C   3.62143388978069     11.16005816494627      1.60966684322485
  C   4.14464391856857     13.15846971594532      3.64368704924395
  C   2.73010537419010     10.55421539384314      8.08551140604618
  C   1.42940010960486      8.62049692469769      6.39508002217903
  O   6.10308575029659     10.25955757148088      5.66085662781351
  H   1.49252193437611     10.38343694879117      3.55554568590531
  H   1.35637174988017     12.15718223123722      3.49721515300632
  H   0.71896748691884     11.33352587194658      5.78845913716549
  H   2.19287973369182     12.30178765161657      5.88132993147053
  H   4.60410311685670     11.37571656037018      1.17084690786113
  H   3.36073224752297     10.11682182147805      1.39674693840989
  H   2.87846251892528     11.82825941999024      1.15339602397797
  H   5.17747208886647     13.31458740603201      3.30732846428724
  H   3.47802254801492     13.81559022391901      3.06809663222654
  H   4.09486973334757     13.44021962218679      4.70310017800184
  H   3.14290870415675      9.77161020951038      8.73508976017967
  H   1.72368456637990     10.81226696771261      8.44368057962666
  H   3.37267582475279     11.44006754062679      8.17185675498117
  H   1.75865430285378      7.83665217767192      7.08919283039574
  H   1.32153015464904      8.17709082626122      5.39885234771440
  H   0.46005358109816      9.00433263351617      6.74155696204276
  H   5.92890086598932     10.84406063726186      6.42470563403545
