65
Coordinates from ORCA-job CABXOU_1_5_tpss_d4_lanl2dz_631gpol_Fe2.opt
  Fe  4.34512997103745      9.06470879859145      4.68538680079523
  P   5.23414905826769      7.21983090284404      6.16616279678056
  P   6.36681335313164      8.51242710064837      3.38533266103828
  C   6.80806909601223      6.58849674840145      5.37983368332892
  C   6.74054256090971      6.74498072915784      3.84422292509946
  C   5.65696605049727      7.17138095760178      7.97003604108182
  C   4.10871994136203      5.76188715565487      5.99381827850561
  C   6.11971498309076      8.40688899757879      1.55946402602048
  C   8.02736169518394      9.32532756256219      3.51925498257136
  C   3.13862202369051      8.04063864829612      3.61497981134169
  C   2.37103614896844      7.40799798808599      2.85712593862395
  C   1.50612850420145      6.69247838730015      1.99386354016817
  C   1.59123750537013      6.85727774952190      0.58783036774051
  C   0.73986472618279      6.14891881738573     -0.25673325842857
  C   -0.22398448176318      5.25799367968676      0.25655130713594
  C   -0.30304832369565      5.09376200582831      1.65463306136862
  C   0.54032443386843      5.79332319229785      2.51395252888543
  C   -1.16467994251674      4.51669075348269     -0.66412781026077
  H   7.64544188526130      7.17722973143009      5.78456219580922
  H   6.98349520905175      5.54010020399273      5.66146147358818
  H   7.67550219371181      6.40930948859173      3.37228178027744
  H   5.92395894274637      6.13226696890933      3.43431390414698
  H   4.75559883698377      7.35315068982439      8.56989909205736
  H   6.38751308242659      7.95530309723782      8.20744255800079
  H   6.07434487489067      6.19646121554621      8.25758862055712
  H   3.15381459866993      5.97237738770480      6.49165539980675
  H   4.55037419922654      4.85706899105098      6.43402998782878
  H   3.89490478553195      5.59480157978060      4.93184809898627
  H   6.12742029831301      9.41310371301947      1.12190091070225
  H   6.90924394511907      7.81237131533343      1.07979582234021
  H   5.14255725670859      7.95036566850438      1.36063979748904
  H   7.95380555316937     10.36981163844577      3.18965530946042
  H   8.36560950977793      9.32840596376719      4.56341398362187
  H   8.77755626332116      8.81067333282956      2.90306966711988
  H   2.33293190816135      7.53942029938066      0.17619664259530
  H   0.82138695429237      6.28441132161499     -1.33468890251152
  H   -1.03706071858623      4.40414223669936      2.07019447441800
  H   0.46983720134377      5.65441126528889      3.59089169312117
  H   -2.10879479491761      5.07095972522494     -0.77933660290916
  H   -0.73166147977406      4.39196462821478     -1.66409425914920
  H   -1.41494750012173      3.52501081112596     -0.26663192152508
  P   3.71457833896533     11.16649235055768      3.45966053899962
  P   2.83854120226065     10.03456365017731      6.39856006850116
  C   2.02144274418229     11.51296362149088      4.16277021983999
  C   2.07826888723252     11.59199852032056      5.70502299759975
  C   3.35998465653169     11.02857778499052      1.65163730012220
  C   4.53168830655730     12.82926857695272      3.57294582772792
  C   3.15178247439696     10.48401762375365      8.16645915311037
  C   1.37982474112084      8.90580282493123      6.52857376327518
  H   1.37418440577373     10.68011446881988      3.84974353684990
  H   1.60412550653465     12.43820382920264      3.73905083676546
  H   1.07636789957577     11.75259853027487      6.12885501654749
  H   2.70127326654234     12.44214810983916      6.02158957059781
  H   4.29779099488712     11.04706493944384      1.08261273850083
  H   2.85719173279242     10.07287568386675      1.46167458821841
  H   2.72419328642371     11.85381325012756      1.30274701386313
  H   5.51433515350762     12.79100316440009      3.08473278313909
  H   3.92860952344249     13.61180290007193      3.09170671277362
  H   4.69389508455567     13.10090724302215      4.62396290044470
  H   3.47210928915398      9.59541606745285      8.72510937806729
  H   2.24823457409827     10.89028120947105      8.64138334856966
  H   3.95366838286374     11.23067563748824      8.22816448234243
  H   1.68060629826466      7.96797005680491      7.01291499537466
  H   1.02442072753090      8.65960157142379      5.52105027638684
  H   0.56678221369838      9.36110693667059      7.11099454475332
