71
Coordinates from ORCA-job CABXOU-CH3OH_1_5_tpss_d4_lanl2dz_631gpol_Fe2.opt
  Fe  4.45188437977875      9.16196662437156      4.74119659619144
  P   5.16891352348352      7.07894246165789      6.03563061568215
  P   6.20411750950181      8.32657399806377      3.13840665412284
  C   6.55196678314887      6.29105047134958      5.05648590095109
  C   6.34324285315819      6.50947666978103      3.54171831429750
  C   5.74256867611862      6.80595501709242      7.78287383506753
  C   3.85121512025854      5.78443625769224      5.91118916115061
  C   5.86459333099173      8.26314051475373      1.32307352633771
  C   7.97732446028832      8.86879185948126      3.18172826195937
  C   3.12485124780974      8.18488363340410      3.68463736693725
  C   2.39888882437000      7.52106970730258      2.91554058254944
  C   1.58729324658868      6.75557776923323      2.03825465742441
  C   1.69063742152107      6.91500483807722      0.63391995974959
  C   0.90247951492967      6.15019778011766     -0.22398555013827
  C   -0.01487149092314      5.20460160159426      0.27467717198165
  C   -0.11417748503123      5.04669043288388      1.67162447748347
  C   0.66595089358042      5.80395957850936      2.54291438048607
  C   -0.88666032348188      4.39859109782342     -0.66030196315315
  H   7.49845500648144      6.75245229756098      5.37853520902401
  H   6.62072388698401      5.21888600303096      5.29253083587980
  H   7.15973835381365      6.04830707290252      2.96676215752180
  H   5.40244221454781      6.04105239804895      3.21660675194029
  H   4.95928648325380      7.12471313261478      8.48363838067726
  H   6.64677754514712      7.38977570785628      7.99510760013135
  H   5.96262395131890      5.74516849352681      7.96664567096143
  H   3.00755900789924      6.04809768634006      6.56101701978756
  H   4.23709310090541      4.80088154153839      6.21319952238206
  H   3.47679898958523      5.74127270846711      4.88286990392386
  H   5.93559278645344      9.26810377864589      0.88869894200792
  H   6.57601910581091      7.60634055376769      0.80384988042157
  H   4.84589446641308      7.88824186378198      1.16687659478879
  H   8.04715227280750      9.91561665360623      2.85931270392232
  H   8.36276173563900      8.81507021614759      4.20783464134499
  H   8.61175762078390      8.25181006627808      2.53007410895324
  H   2.39610204483176      7.63969159661142      0.23078645553637
  H   0.99884670681587      6.28422537039775     -1.30102408901526
  H   -0.81363120939059      4.31674159874651      2.07811614372716
  H   0.57882304925442      5.66891512688771      3.61934336469153
  H   -1.86440754717902      4.88569120429943     -0.79570044005663
  H   -0.42732167169154      4.30055610686600     -1.65152580270381
  H   -1.07530277213673      3.39296945188553     -0.26361188912142
  P   3.63210514145839     11.21450296675060      3.44974005962309
  P   2.74029187378949     10.02513309081740      6.42908122868671
  C   1.88898027117976     11.37013525544163      4.09531195959692
  C   1.88504938457421     11.48754821209183      5.63538846887620
  C   3.35481330215583     11.02056950473812      1.63432695226181
  C   4.21190551082321     12.98532046155239      3.53827846177348
  C   2.86979740630909     10.59486081621967      8.19374383448488
  C   1.36109615285138      8.79867884121109      6.54548962372360
  O   6.08565927180857     10.51827918242703      5.58392981113529
  H   1.35591689536192     10.46187420312991      3.78001353634084
  H   1.38403033740945     12.23413186423779      3.63866045761183
  H   0.85788579021258     11.57866146615431      6.01821191079554
  H   2.42145295457910     12.39776154529907      5.94675713985091
  H   4.30410463449158     11.12909943002641      1.09508850634389
  H   2.95685616788717     10.01664740388078      1.44695988623839
  H   2.64769155735471     11.77166241588872      1.25645193983627
  H   5.21842699227736     13.06903824950252      3.10718238227013
  H   3.53975230850086     13.66140373916088      2.99108745286129
  H   4.26210297519833     13.32755498376740      4.58204873764554
  H   3.24334134194562      9.77598119921836      8.82293663826226
  H   1.89577903297363     10.91897332581350      8.58617919853058
  H   3.57446670154065     11.43342416036622      8.27364613041705
  H   1.68457406160962      7.93281980927128      7.13700345798395
  H   1.11191909441364      8.44566227170587      5.53821008344662
  H   0.47318957709922      9.23832912731784      7.02046679366660
  C   6.62309227622317     10.26760017649653      6.90683378436838
  H   7.19825783255262     11.13431121125511      7.25239214315823
  H   5.82093123632869     10.02505870435220      7.61587656442124
  H   7.29153920268372      9.41041791203357      6.79817201774877
  H   5.64829709996529     11.39408752687221      5.58130322223197
