49
Coordinates from ORCA-job BEGXOB-oxo_1_5_tpss_d4_lanl2dz_631gpol_Fe2.opt
  Fe  0.06127700492390      3.62619626589730      4.52175393722594
  Se  -0.82014082975332      2.43057033895292      0.19307586516637
  N   0.07540712525207      5.26948549409699      5.94905241496286
  N   2.11676838118968      3.86557061668724      4.90976244432435
  N   0.26644473694344      2.40761208410423      2.97453671600790
  C   -0.96100315397658      5.94545918153397      6.44683143321037
  H   -1.93960111861049      5.67953197809468      6.05435811279181
  C   -0.80896991141496      6.94333097677801      7.43248865726542
  H   -1.68622701683547      7.46394212406490      7.80775234996780
  C   0.45998302511810      7.23713265966566      7.91139954668960
  H   0.60454823691141      7.99842266291168      8.67596532426544
  C   1.57886826660787      6.53138109595502      7.40302681102792
  C   2.93139801022979      6.74912766025457      7.83817606959587
  H   3.11712588590000      7.50430860047712      8.59956107370920
  C   3.97025521617993      6.01958783795079      7.31798834356670
  H   4.98852817672351      6.18898754191769      7.66274701702692
  C   3.74181403203121      5.01523225771021      6.31577164011669
  C   4.76270586480916      4.21492852020746      5.74302101769799
  H   5.79415364519022      4.34764942079819      6.06497253928342
  C   4.43635422331504      3.26451118827209      4.78474330151726
  H   5.19877469530880      2.63252044147201      4.33704800063128
  C   3.09101636836636      3.11414647860836      4.38810429802083
  H   2.77801853925504      2.38272013241908      3.64640008669947
  C   2.41587405848153      4.79060755587258      5.86044245546395
  C   1.32476097142876      5.54760992520391      6.40997615392948
  C   -0.13414905022973      2.38700108951740      1.84367314046109
  N   0.06363870083782      5.16067547325898      3.06999549496140
  C   1.10872033066480      5.81627653122975      2.55440859777335
  H   2.07455453137039      5.61398600998854      3.00846060004974
  C   0.98127265494476      6.71302681804771      1.47544094591092
  H   1.86562688714914      7.21894611587554      1.09717309098971
  C   -0.26682171890326      6.92457048795762      0.90532455330476
  H   -0.38675539114218      7.60134965830437      0.06140148392896
  C   -1.39084447968507      6.23528001691727      1.41947654480266
  C   -2.71963609656850      6.34775812287138      0.88351835733551
  H   -2.88210922640074      7.01068423345280      0.03597523970179
  C   -3.76269741593377      5.62909450123673      1.41073185330075
  H   -4.76063823335892      5.71549164028069      0.98547313006072
  C   -3.56456226545140      4.74552903333688      2.52658780555007
  C   -4.58476892411151      3.96200480509271      3.12120445901742
  H   -5.59984778309583      4.01375217838002      2.73152811934846
  C   -4.27623785724839      3.12414077809636      4.18612813388232
  H   -5.03837155032338      2.50392975310443      4.65049906526198
  C   -2.95302342655548      3.07026392174363      4.66908930247708
  N   -1.97941671819814      3.81471677213488      4.13323884035716
  O   -0.14615983470000      2.50408670787296      5.69270319078518
  C   -2.26273163896823      4.62897175298771      3.07755269500537
  C   -1.16910258741059      5.36474096181595      2.51859795132330
  H   -2.64977334025686      2.42094959658800      5.48726179424448
