54
Coordinates from ORCA-job BEGXOB-CH3OH_1_1_tpss_d4_lanl2dz_631gpol_Fe2.opt
  Fe  0.11055772626607      4.07781120677340      4.49203744066446
  Se  -0.77154760737299      2.10367268537803      0.42641030691836
  N   0.07599049734090      5.44542037112044      5.86428370584692
  N   2.02092347978679      4.10083272158877      4.81298891221427
  N   0.29126134214611      2.68964133820986      3.15904011760256
  C   -0.96136765943418      6.15351248843720      6.35277299167833
  H   -1.93901403449975      5.90695901150636      5.94924419852725
  C   -0.79785427430071      7.15248744144814      7.33050714193922
  H   -1.67566607654038      7.68600442165728      7.68632479226453
  C   0.46678190765273      7.44734635723360      7.83187062584222
  H   0.60262844470328      8.21684375825120      8.58908033635390
  C   1.58335723580846      6.73167471156214      7.33485498025160
  C   2.94798726921468      6.93389550539874      7.74539126221731
  H   3.15484969673402      7.68520167115075      8.50519993468740
  C   3.97747223681319      6.20730339054385      7.19655823575446
  H   5.00192370906604      6.38100315877003      7.52045698720969
  C   3.73482671404745      5.21468219827574      6.18412464066528
  C   4.72871064081960      4.43519646893949      5.54219769431591
  H   5.77613823565476      4.55667899352747      5.81151089414769
  C   4.34446082370715      3.52242667228513      4.56403542082394
  H   5.08387510464400      2.91265887766158      4.05097811178661
  C   2.98625307674810      3.37697783836287      4.21741480307988
  H   2.64145361165897      2.68469987677755      3.45325846945013
  C   2.39443451518897      4.99902539178908      5.77994630138828
  C   1.32820785685750      5.74562416742902      6.35046457505064
  C   -0.13623764409290      2.44941861869996      2.06155072263986
  N   0.16604325617636      5.36556379402729      3.06078085362106
  C   1.21311515437428      6.03690067637176      2.55719047895059
  H   2.16075046523826      5.91323674876103      3.07092487370911
  C   1.10300114393414      6.84433958651055      1.40890672228957
  H   1.98782563125991      7.35911275667750      1.04356333885861
  C   -0.11473260853440      6.96105502634661      0.74947832537134
  H   -0.20707075420340      7.56699667082293     -0.14958123003534
  C   -1.23915852873450      6.27028487309904      1.25951439335438
  C   -2.55446366474268      6.28939842495552      0.67843840763579
  H   -2.71261222511888      6.87255474971322     -0.22655541878760
  C   -3.59285011606497      5.58585108411429      1.23729463019257
  H   -4.57871017220357      5.60688595184411      0.77715273207756
  C   -3.40810986437475      4.80486603599597      2.43023308379637
  C   -4.41600945495192      4.04884796599797      3.07482131615064
  H   -5.42604515933686      4.02822662643475      2.67046696397761
  C   -4.09107151250355      3.32734905011425      4.21807273174152
  H   -4.83965508905550      2.72967734750795      4.73184769731826
  C   -2.77559938257929      3.35074731210984      4.72096006671157
  N   -1.80098719216961      4.06350796830171      4.13402565830512
  O   -0.16988994121430      2.65975567773960      5.95478288618819
  C   -2.11747815035734      4.77459468666508      3.00955707671467
  C   -1.04100141560055      5.49478279251724      2.42685531486209
  H   -2.48120489088494      2.78136831560309      5.59722116276211
  C   0.41303270276906      1.32668956959989      5.79410911950731
  H   1.50618425650882      1.38908122118762      5.76505033697209
  H   0.07518093353917      0.70211023840799      6.62803641221401
  H   0.03784525010007      0.95783334877791      4.84051759875090
  H   0.15829450011309      3.03885215701719      6.79571086346881
