50
Coordinates from ORCA-job BEGXOB-OH_1_2_tpss_d4_lanl2dz_631gpol_Fe2.opt
  Fe  0.02446175053392      3.81192737997046      4.56395798376714
  Se  -0.88125848705018      2.20513458562311      0.39098723924852
  N   0.02518719425225      5.28798421531366      5.88862550699938
  N   1.93555924641333      3.79482831108754      4.94254071997570
  N   0.26576454616018      2.58764643807582      3.11829805270187
  C   -1.00410391445255      6.00845271199119      6.34656277437018
  H   -1.98314326576576      5.75607409592894      5.95030883746878
  C   -0.82844154994571      7.03342300544112      7.29882827480464
  H   -1.69670238386635      7.58901177255739      7.64313970807367
  C   0.44164783900669      7.31879509787550      7.78682336925911
  H   0.58984300933150      8.10745750547774      8.52211055221809
  C   1.54848488620955      6.56699690361803      7.32195532826774
  C   2.91227379157315      6.74622750505398      7.74365767568151
  H   3.13320753633946      7.52071770867954      8.47547532515609
  C   3.92259439908238      5.96020131975451      7.24388354114701
  H   4.94742480851027      6.10999942759080      7.57793847872931
  C   3.65855506508673      4.92498781419852      6.27979890255709
  C   4.63133905103320      4.06228730880270      5.71520975701661
  H   5.67611558171779      4.15539080382247      6.00543797154740
  C   4.23134490277524      3.09952546880278      4.79487146472657
  H   4.95398650226748      2.42153560023165      4.34818194182259
  C   2.87488266673974      2.98601317142995      4.42586423503613
  H   2.51616957083835      2.25415523411481      3.70706007792829
  C   2.32092384123844      4.74002906826004      5.85423815103151
  C   1.27456970174141      5.55605684136558      6.36795343961926
  C   -0.20701411626438      2.42413800142314      2.02512959100775
  N   0.08997767300639      5.26098077013965      3.15115925719269
  C   1.13648502880457      5.94293112026221      2.67201280190720
  H   2.09394984719537      5.76059681957621      3.15206143153244
  C   1.01289985975056      6.84033170985835      1.59320419909088
  H   1.89466092714254      7.36820384368661      1.23957505086138
  C   -0.22446340777030      7.02872468681932      0.98787242581415
  H   -0.33281832518657      7.70875482661472      0.14506647581885
  C   -1.34739341991275      6.31337567637303      1.46759343061142
  C   -2.67388613207525      6.39289346333460      0.91827119442256
  H   -2.84710615918715      7.05433389748060      0.07177705625530
  C   -3.70412318544332      5.64547261112005      1.43393047685054
  H   -4.69873176844314      5.71027555180089      0.99718843265292
  C   -3.49909764120727      4.75596434131997      2.54508171725309
  C   -4.49378087920031      3.93091323689011      3.12451415723184
  H   -5.50922469194932      3.94733530099241      2.73323654524311
  C   -4.15179568960188      3.09301484288838      4.17964363948931
  H   -4.89117109971498      2.43858521479380      4.63384350576174
  C   -2.82931577626967      3.06897630217197      4.66752485946941
  N   -1.87873389021462      3.85388214647914      4.14363262567431
  O   -0.35892589742750      2.59782239148487      5.84468472219856
  C   -2.20033132710345      4.67433860674275      3.10173703492710
  C   -1.12862004071043      5.44330140714826      2.56463136216154
  H   -2.49792815969564      2.41755817742990      5.47192103029067
  H   0.45340198170798      2.34365575810102      6.33235766712681
