54
Coordinates from ORCA-job BEGXOB-CH3OH_1_5_tpss_d4_lanl2dz_631gpol_Fe2.opt
  Fe  0.21307429216737      3.99915880012293      4.47839599914405
  Se  -0.86554798795907      2.36385632994876      0.45873228893512
  N   0.26804400142072      5.47904852915398      6.07164803003711
  N   2.29638250646342      4.14399980721564      4.94133458282393
  N   0.50418294320705      2.58648281287124      3.10561448578661
  C   -0.76478919153213      6.14116744125484      6.60942404000619
  H   -1.74899193138803      5.86820275691624      6.23525994037229
  C   -0.60208944376067      7.13438709410854      7.59460181937386
  H   -1.47646947667556      7.63882923063422      7.99794084269776
  C   0.67701512060682      7.45229791205342      8.03513699162522
  H   0.83120250127203      8.21549673044550      8.79605298516910
  C   1.79236834037228      6.77570632476082      7.48460010633413
  C   3.15381876007052      7.03099771459653      7.86809264388970
  H   3.34708649762613      7.78669695835698      8.62729408802922
  C   4.19221627616689      6.34251446813371      7.29428304231380
  H   5.21891823777926      6.54576931447836      7.59342175656998
  C   3.95556541550451      5.34323212288531      6.28844455471929
  C   4.98167369753463      4.60282029366082      5.65158311689782
  H   6.02145523665129      4.77771093325578      5.92245891293027
  C   4.64455240684403      3.66132339462208      4.68580042045189
  H   5.40998368771363      3.07844670917101      4.17962290922089
  C   3.29035065126655      3.45877848999534      4.35506236497080
  H   2.97727975908744      2.73813405016872      3.60197771377492
  C   2.61760415289989      5.07015272045664      5.89335356969821
  C   1.52983606503140      5.78784806802274      6.49538218357208
  C   -0.02433784625909      2.46966440631027      2.02925305922645
  N   0.07867619305922      5.53626750838423      2.93393211799373
  C   1.08343921253221      6.21029954035225      2.36572035886676
  H   2.03610354174796      6.17841384594654      2.89049539096823
  C   0.93944036314554      6.91824517142870      1.15627312038865
  H   1.79084608906511      7.44892338606840      0.73779595636548
  C   -0.29192988726527      6.91638203818402      0.51598353309064
  H   -0.43170448116216      7.44496753477388     -0.42536746704831
  C   -1.37478498944207      6.20555205987877      1.08661605836202
  C   -2.67406861867721      6.12403001327876      0.48134993719338
  H   -2.84008005034658      6.63678748720644     -0.46421840977499
  C   -3.68428292141862      5.41052990734266      1.07105395227272
  H   -4.66380919125234      5.34870371338007      0.60068690415490
  C   -3.47697385565642      4.72566893618774      2.31610395717307
  C   -4.48476434846962      3.97701477286306      2.96920359285098
  H   -5.47498561473941      3.90566310775789      2.52245921589772
  C   -4.19642541234103      3.33502738458689      4.16597466001168
  H   -4.94962535449894      2.75074908488227      4.68842045351559
  C   -2.90072677577101      3.44387070281458      4.70588387273098
  N   -1.92595208255677      4.14764441001410      4.11455488660528
  O   -0.24633947181917      2.50944724647250      6.09012781297906
  C   -2.19894259999148      4.78249090538698      2.93691224208885
  C   -1.13462386417997      5.52749379861745      2.31298931854035
  H   -2.62640444042256      2.95557749144934      5.63834023931004
  C   -0.22698385865947      1.10108299253734      5.71191630450182
  H   0.77100031991552      0.80256969290042      5.37295368831288
  H   -0.55440842799850      0.49069081234164      6.56170835749495
  H   -0.92749036869719      1.00729315612718      4.88083167059794
  H   0.37044622378891      2.63335988523502      6.83840582598457
