49
Coordinates from ORCA-job BEGXOB-oxo_1_1_tpss_d4_lanl2dz_631gpol_Fe2.opt
  Fe  0.04677817225461      3.74000264721488      4.58645645695908
  Se  -0.97376223653118      2.26501568382867      0.42254555162085
  N   0.02503195112066      5.23875870446907      5.89748638702397
  N   1.98679726942378      3.79916576570083      4.90809646146867
  N   0.30149432668359      2.53672488329305      3.10660863158110
  C   -1.01216294109064      5.93387139516117      6.37258692704818
  H   -1.99175798435782      5.66368085855263      5.98958911593455
  C   -0.84563158202368      6.95699396585012      7.32911390754316
  H   -1.72053407527585      7.49289770585253      7.68735071488028
  C   0.42372971830493      7.26031445660391      7.80488024326698
  H   0.56651600883271      8.04390218488949      8.54659149397493
  C   1.53957294637163      6.53307757965924      7.32125206937491
  C   2.90145554177819      6.73657088041810      7.73766636865679
  H   3.10883921703052      7.50794030450009      8.47661303205879
  C   3.92482925969698      5.97529701539739      7.22747139433113
  H   4.94774453454522      6.13969425414557      7.56027261821832
  C   3.67502563897534      4.94608713897624      6.25411749166701
  C   4.66156453899065      4.10341810586564      5.68129454522282
  H   5.70392909145381      4.21225815746654      5.97515621176408
  C   4.28330286521194      3.13958542794610      4.75462323125184
  H   5.01809289243213      2.47522116565135      4.30776277519167
  C   2.92758741274453      3.00743508192953      4.38378213063986
  H   2.57492563243281      2.27126420840982      3.66630527821926
  C   2.34064579352516      4.74090510944667      5.82795195923506
  C   1.27654266533725      5.52611572112921      6.35981816380865
  C   -0.22630169414157      2.41748874874189      2.03226072241275
  N   0.13057444277288      5.25184396682940      3.12543010201557
  C   1.16931540545814      5.92626766096515      2.62301715376897
  H   2.13426350251622      5.74520844956149      3.08909435412010
  C   1.03457013062406      6.81859910563645      1.54062754520554
  H   1.91270724531616      7.33999215294359      1.16881313189214
  C   -0.21254492255686      7.01094975737165      0.95896595141393
  H   -0.33490391955081      7.68862581381045      0.11617576675012
  C   -1.32952612251045      6.30165606679794      1.46153714590267
  C   -2.66197698781212      6.39075635872871      0.92989836745427
  H   -2.84170673500712      7.05405865455618      0.08622377562982
  C   -3.68956457326974      5.65027305537052      1.45884660679633
  H   -4.69024097539868      5.72115860140854      1.03742616887439
  C   -3.47281179221875      4.75597323556151      2.56319782695349
  C   -4.46918641475825      3.93410073812609      3.14386660788447
  H   -5.48712856382170      3.96434284345249      2.76004819120310
  C   -4.12860042871490      3.08152552517760      4.18693451853570
  H   -4.86882969396472      2.42861889063212      4.64154835529336
  C   -2.80223863998077      3.04205169331611      4.65938674279952
  N   -1.85012204399338      3.82441188138090      4.13361430859978
  O   -0.20978182716455      2.63026509950082      5.77721405416980
  C   -2.16647390671587      4.66210893700750      3.10329338488563
  C   -1.09539886266644      5.43183784620297      2.55678705372631
  H   -2.47034928030808      2.37948651456153      5.45479900276985
