37
Coordinates from ORCA-job AFAXIO-oxo_0_1_tpss_d4_lanl2dz_631gpol_Mn3.opt
  Mn  3.60820155104242      5.42449994244059      1.00264467539901
  Cl  1.66058914274892      6.30946580365343      2.25743708061791
  O   4.61221298344519      6.57176594205145      2.02243476457694
  O   3.45161299613180      6.83426524869327     -0.18610906219414
  O   4.65976954146902      4.51240419042480      0.22864535271905
  N   3.48648514829444      4.05276900437337      2.42525805232636
  N   2.13497154620474      4.39685094897711      0.19764431806256
  C   4.84974376383545      6.49510669088840      3.31990452190410
  C   5.46437093988468      7.62353716439914      3.91946207940166
  H   5.66622879124822      8.47965915011142      3.28072999278214
  C   5.79400636713758      7.62497522111410      5.27067319691349
  H   6.26742428178363      8.50484205321004      5.70403835339821
  C   5.51197868525680      6.50922299239708      6.08516637457168
  H   5.76593053458867      6.52009837156873      7.14284747274125
  C   4.89716696712701      5.39703068030760      5.52037239866539
  H   4.66237234409353      4.52887798365863      6.13692291213315
  C   4.55450199741241      5.36077634955576      4.14924699131621
  C   3.90534291932011      4.18118956034123      3.64280816849146
  H   3.73930266161096      3.35683832338182      4.34678283564082
  C   2.81752435850576      2.84526101302514      1.93324485707282
  H   2.47081538891149      2.21357764649757      2.76243298224972
  H   3.54179083258135      2.28696798651799      1.32459983657384
  C   1.64243782635586      3.31020524597995      1.05783948267230
  H   1.23943530412475      2.48670120296331      0.45154779962457
  H   0.85344921482556      3.72846168699194      1.69493761729783
  C   1.63190102516187      4.62715295112224     -0.97435561117870
  H   0.86317245936651      3.94215904644942     -1.35246804461409
  C   1.97624341576026      5.74732380154621     -1.80394972373364
  C   1.37953801023497      5.83744523429407     -3.08578784700779
  H   0.72291625751757      5.02891844864173     -3.40881771727505
  C   1.61308001916469      6.92288973589957     -3.91898622900483
  H   1.15244783239335      6.97227738936110     -4.90314476035959
  C   2.44639663027973      7.96912055870273     -3.46541298773972
  H   2.62836933764027      8.83026828013813     -4.10712882896496
  C   3.03336188211433      7.92177604003807     -2.20783670164703
  H   3.67200511608753      8.72304621905642     -1.84451132651113
  C   2.83370192633844      6.80767189122623     -1.34801327692182
