36
Coordinates from ORCA-job AFAXIO_0_1_tpss_d4_lanl2dz_631gpol_Mn3.opt
  Mn  3.00959623220889      5.81607748612445      1.31936426133742
  Cl  1.11914978544552      6.39463766947503      2.48894069691987
  O   4.27179364919741      6.81018094965003      2.24514298081368
  O   3.26013209663913      6.88386967242119     -0.17613421126694
  N   3.37945805501846      4.22295779449616      2.40315265868099
  N   1.99311187267173      4.51254294592722      0.25708066898320
  C   4.72482933878637      6.62068505637345      3.46533405482829
  C   5.43554038987661      7.67581138635355      4.09623597265377
  H   5.55356015638428      8.60389750202451      3.54196710842365
  C   5.93687559147917      7.52429400038220      5.38157173819696
  H   6.46396266227182      8.35480219914845      5.84989770271711
  C   5.77106844276926      6.31310198770411      6.09480299785318
  H   6.16993039130476      6.21049748958023      7.10168169476508
  C   5.09962622651520      5.26150749792563      5.49318502468559
  H   4.97035018820732      4.31579590393327      6.02077753958333
  C   4.56467482564685      5.38413609887425      4.18274702671234
  C   3.93696943000181      4.24761869658907      3.58989727256823
  H   3.93438857284870      3.32118423376036      4.17710386328109
  C   2.81213607954807      2.96363766018001      1.89017135359462
  H   2.55130665153045      2.28147111497537      2.71152028238830
  H   3.56187758315163      2.47645289488789      1.24929398306676
  C   1.58595303299252      3.34882304270201      1.05735265286708
  H   1.24504504606649      2.51893175703927      0.42202077453411
  H   0.77212726923504      3.67259064026356      1.72006755949239
  C   1.59543768564790      4.63147222978320     -0.98099371978532
  H   0.97266923988657      3.83383324380520     -1.40390130525168
  C   1.92170154371777      5.72890443126748     -1.84097063118377
  C   1.43373385140976      5.72351339267515     -3.17239643031431
  H   0.80260866176267      4.89313601388636     -3.49129292138007
  C   1.74675269467089      6.74667839985634     -4.05555063023049
  H   1.36370030498534      6.73437417397226     -5.07365214684546
  C   2.57186859729571      7.80550171872696     -3.61521888135771
  H   2.82198224919354      8.61322003458946     -4.30212061881400
  C   3.07099919861331      7.83693295626521     -2.31788361807540
  H   3.70580099686419      8.64858409260374     -1.97032126025717
  C   2.75628140615474      6.80764363177719     -1.39497349418476
