38
Coordinates from ORCA-job AFAXIO-OH_0_4_tpss_d4_lanl2dz_631gpol_Mn3.opt
  Mn  3.33757053012791      5.60903303138794      1.13101220053930
  Cl  1.64511295108510      6.48875847182483      2.51819434485027
  O   4.68667427406257      6.47614934981034      2.06094087030710
  O   3.08617229106355      6.97244451439318     -0.10361339795536
  O   4.52407393249375      4.72995060459276      0.07422595128731
  N   3.38968529853794      4.09766588494958      2.43381146085207
  N   1.95593966162025      4.48650628150658      0.28162338795629
  C   4.91323774575219      6.42065460989239      3.36637344673193
  C   5.60829092564504      7.49539435027243      3.96851427492528
  H   5.87871940407079      8.34004691317577      3.33974165179374
  C   5.91945274883888      7.46698168755257      5.32456964308561
  H   6.44547464355405      8.31228235524025      5.76660367157513
  C   5.56294532113220      6.36726373507185      6.13341301405076
  H   5.81178672410529      6.35864480462905      7.19221313253863
  C   4.88942208416033      5.29838613369910      5.55803703344703
  H   4.60422797481554      4.43683247780458      6.16250378040920
  C   4.54345558454075      5.30366853241929      4.18479300978858
  C   3.86975923077003      4.16011640825979      3.63818345483916
  H   3.75620119951918      3.28458162299565      4.28873146821842
  C   2.74302118587501      2.89767924484242      1.90075780287493
  H   2.47693842071307      2.19750068156104      2.70476361854236
  H   3.44353228179008      2.41883737286333      1.20407327833177
  C   1.50354698890891      3.38359407901134      1.13162110752857
  H   1.05630359093752      2.57943283718648      0.53081666697204
  H   0.76325303377216      3.78285888684280      1.83726432311686
  C   1.57071374580545      4.62075031923725     -0.95406439836223
  H   0.89730712523844      3.85847180603922     -1.36438250364252
  C   1.93292532332996      5.70130162452335     -1.81991137476569
  C   1.48509856764947      5.66967500990722     -3.16574958032133
  H   0.91975391389294      4.80041506640002     -3.50358148861679
  C   1.75455307362459      6.71218269002871     -4.03873926767510
  H   1.41076629829555      6.67391092393269     -5.06995687078927
  C   2.47678710440126      7.83164888326905     -3.56593723689897
  H   2.68851798899962      8.65927860681844     -4.24207652747481
  C   2.92324354487793      7.89951717705396     -2.25248251217455
  H   3.47279021470528      8.76091679449261     -1.88080745506286
  C   2.67152579965996      6.83831303218639     -1.34414679316880
  H   5.40178927162717      5.05619319432533      0.37239681234586
