58
Coordinates from ORCA-job ATOFUM-CH3OH_2_4_tpss_d4_lanl2dz_631gpol_Fe3.opt
  Fe  5.56304181242956      8.24721411062335      3.45306785333308
  Cl  6.56649038001320      9.60150802093929      2.00376982845572
  O   6.06410616612805      6.59472474474884      1.99224080983131
  N   4.84213287928534      9.79233907934896      4.78406673334291
  N   3.83662060226197      8.62318117484130      2.59115807391983
  N   7.18199158146292      7.92825633872913      4.55278963008342
  N   4.77882133757123      6.81792782821148      4.63560789792701
  C   3.39135030468683      8.00093519429577      1.48710043599569
  H   4.00251979407399      7.17986015582389      1.12270621464917
  C   2.21203893081051      8.41608534260638      0.84614847156659
  H   1.88360152700530      7.89307508568149     -0.04791175468675
  C   1.49631935354699      9.49482263604981      1.35418882299148
  H   0.59010337061574      9.82704118094941      0.85419938825396
  C   1.94992576689421     10.16931596018799      2.51620505427704
  C   3.14775764296250      9.68663208270409      3.10932580831589
  C   1.27078766398406     11.30829933066836      3.10481396554387
  C   0.00058432438786     11.83312553477918      2.48100705480089
  H   -0.38632610950766     12.68261299766431      3.05207955378009
  H   -0.78051429423643     11.06030588396186      2.45157955062841
  H   0.17513782877481     12.17050381222376      1.44947943278344
  C   1.81280380538632     11.89749213882004      4.22693173907748
  H   1.31577314342710     12.75782455878752      4.67205099567488
  C   3.02210430594355     11.42742797337508      4.83801608674415
  C   3.61804826567552     12.01615495551309      5.98287179090957
  H   3.15095529746554     12.87986965617656      6.45231725583021
  C   4.79768291330748     11.48715755597794      6.49028042495198
  H   5.27797975863977     11.92322764469117      7.36222357865844
  C   5.38464122103310     10.36929983619794      5.86179056095836
  H   6.31137898035566      9.93785754271948      6.23178824232785
  C   3.68618882614308     10.30860631587188      4.27599333781927
  C   3.55263048729718      6.27520226844975      4.61565186269678
  H   2.87943560510490      6.61890324353335      3.83666234380417
  C   3.15882722873360      5.30464712039601      5.55473540279206
  H   2.15689087880821      4.88770598136939      5.49828887816221
  C   4.05001071917463      4.89601706177611      6.54114115953560
  H   3.74669361421269      4.15099749269033      7.27253219763699
  C   5.35439005419656      5.45043039960452      6.59090702560990
  C   5.66887259851181      6.41426864988973      5.59795901983706
  C   6.35788654346753      5.09041789412135      7.57611326225581
  C   6.03632704635001      4.07409102355675      8.64415896442820
  H   5.77372709448450      3.10229848882855      8.20266641987650
  H   5.18703176165618      4.39953112118001      9.26150261684008
  H   6.89497630459935      3.92225122523335      9.30530185726831
  C   7.59719072697971      5.69218996529025      7.51191074420361
  H   8.35764500174822      5.43152508024008      8.24594511214379
  C   7.93810837697169      6.65893688426311      6.50752212070494
  C   9.20005340025643      7.29946465282040      6.40181419186027
  H   9.98967867395908      7.06232677925423      7.11226759344423
  C   9.41457826212008      8.22439759086414      5.38728471246901
  H   10.37171705281170      8.72745265174155      5.27802170879817
  C   8.38455719236240      8.52257437265079      4.47223295579501
  H   8.51701828667534      9.23642157984652      3.66411373516389
  C   6.95787339245953      7.01174336059855      5.54904265807367
  C   6.64385022333880      5.30279342717604      2.34044134655198
  H   7.58907943427207      5.43552972036274      2.88014693265096
  H   5.91044105175895      4.80261343797833      2.97554350786962
  H   6.80331336941991      4.71883350862680      1.42850889068833
  H   6.65502823774050      7.04242034448737      1.34753594009320
