54
Coordinates from ORCA-job ATOFUM-OH_2_5_tpss_d4_lanl2dz_631gpol_Fe3.opt
  Fe  5.62441604372818      8.10103955746091      3.18029271251275
  Cl  6.64628043833219      9.68723977381021      1.98990780287150
  O   6.02671518581371      6.78137366862734      2.09111929322117
  N   4.89196065711736      9.53493874380418      4.39508192718905
  N   3.75053812717101      8.43365884980656      2.25830451282469
  N   7.29369066331448      7.72385117005354      4.47819352502198
  N   4.80458522493021      6.74342381629783      4.56735611783409
  C   3.28673866438774      7.89059281385853      1.12498240055668
  H   3.88893959290185      7.09746843464409      0.68877623581816
  C   2.09098563377823      8.34505082621850      0.53520019992595
  H   1.74326560669647      7.88548725545800     -0.38620459155127
  C   1.37468695141268      9.37538632736387      1.13649322094975
  H   0.44971781726284      9.72635426634718      0.68568010963198
  C   1.85767974063150      9.97949783553865      2.32706265951112
  C   3.07422560475772      9.46399235370339      2.84232510003832
  C   1.20430425073523     11.07867517469938      3.01179739999264
  C   -0.08954122134440     11.64086375567840      2.47845487747041
  H   -0.45312373138934     12.45251179108322      3.11603299591068
  H   -0.87042882225746     10.86874783168221      2.43145723277893
  H   0.04357315087851     12.04148989589372      1.46349943554511
  C   1.79912615580748     11.60066327130837      4.14301781302564
  H   1.32323657493512     12.42987330864406      4.66358031593583
  C   3.04563125427330     11.11429876075058      4.65969525097491
  C   3.71003182803703     11.66053492974300      5.78676140561055
  H   3.26400270175720     12.49199959502039      6.32903893909254
  C   4.93671590196097     11.13844075664340      6.17895334296337
  H   5.47643773663884     11.54484941390332      7.03000159354829
  C   5.51122621301369     10.07729537163464      5.45489738871738
  H   6.48220778216924      9.67140194495112      5.71508071447771
  C   3.68028788257529     10.03394043853018      3.99601974239107
  C   3.53823583158151      6.30151395666106      4.58313787997293
  H   2.88550726942579      6.66718739298778      3.79611095553852
  C   3.08329015085043      5.39963442949339      5.56079248118712
  H   2.05054325828160      5.06228326507671      5.53513510841813
  C   3.96501954397374      4.94270015050440      6.53419247478485
  H   3.62334458835661      4.23692530572956      7.28722984466383
  C   5.31021635137858      5.39077259904202      6.54210399126078
  C   5.67863298555028      6.31535100468829      5.52555916675049
  C   6.30115975507794      4.95019614884428      7.50578904685252
  C   5.92108950431191      3.96622458048315      8.58467086987881
  H   5.55895646709363      3.02237184507021      8.15305182832198
  H   5.12428824886025      4.36633612748543      9.22766407600873
  H   6.78251510808408      3.73645645203048      9.21928939501770
  C   7.58820955282899      5.43727200221690      7.40475870999447
  H   8.34378890617521      5.10368256695542      8.11395661773592
  C   7.98240548330850      6.37270175469120      6.39250596961850
  C   9.29879760714943      6.88590209947410      6.24630042680127
  H   10.08204493459869      6.56804884010429      6.93193781364250
  C   9.57607953049540      7.78293508118810      5.22279989221580
  H   10.57655952548617      8.18309222753045      5.08081596230091
  C   8.54532035084514      8.18841650028593      4.34882953081204
  H   8.72102396282587      8.89194900052101      3.53928870305025
  C   7.01414422559161      6.82335122925675      5.46062094765514
  H   5.85909324784131      5.89245350651967      2.48310863272542
