52
Coordinates from ORCA-job ATOFUM_2_6_tpss_d4_lanl2dz_631gpol_Fe3.opt
  Fe  5.45617477039275      8.16596077010528      3.57952048393069
  Cl  6.61210548342080      8.34797755858079      1.70112670370289
  N   4.84005168625910      9.91810480611573      4.48020476035772
  N   3.58108296822663      8.46515544509196      2.60015603558228
  N   7.15082302179310      7.80015673873419      4.78905048102663
  N   4.79812136710614      6.52976079599592      4.70508202706742
  C   3.04274282184770      7.75071773743699      1.59930866508050
  H   3.57078429637868      6.84594644303420      1.30563111480599
  C   1.86088634663181      8.15528623194726      0.95287196656408
  H   1.45721643056782      7.54754592116702      0.14752557909249
  C   1.23175381266758      9.32988686795769      1.35138725696083
  H   0.31600728177451      9.64805875885762      0.85954894639338
  C   1.79180834685723     10.12282242975839      2.38679827712661
  C   2.99041083050601      9.63864291839939      2.97718853754235
  C   1.21632177504195     11.37305532577622      2.84529883758893
  C   -0.05870248953509     11.89201343662529      2.22860271884707
  H   -0.35667429340968     12.83624217787677      2.69437986910549
  H   -0.88314295527711     11.17604045267591      2.35438967643794
  H   0.06642708498204     12.07064552954090      1.15121650506322
  C   1.86134191015392     12.07156967795687      3.84462495118782
  H   1.44025148264172     13.01042933815640      4.19989527378125
  C   3.08749550045677     11.61955316914873      4.43384302553218
  C   3.78906627297022     12.33029386230909      5.44168088545563
  H   3.39095895079956     13.27267846568577      5.81325876717263
  C   4.98212250368926     11.82171036870207      5.94362772461464
  H   5.53763457133923     12.34758891616369      6.71532094967333
  C   5.48594223694077     10.61216090001250      5.43540130409714
  H   6.42114117012503     10.19139049270718      5.79276193059366
  C   3.65488461600513     10.39896923079661      3.98943105428031
  C   3.59854925081271      5.92453321831692      4.64202405305219
  H   2.89735907248777      6.31209462717895      3.90930932945950
  C   3.26302446492137      4.84621235232746      5.47661624740613
  H   2.28150563060096      4.38838246895552      5.38875087750643
  C   4.19532860069008      4.37568324980703      6.39504054537673
  H   3.94756588616119      3.53396101274177      7.03688683610495
  C   5.47002569459077      4.99011854830646      6.49281997633574
  C   5.71893784323404      6.08188696656236      5.61840203395987
  C   6.50275999304264      4.55447830918678      7.41466218763131
  C   6.24333955970011      3.40016353695541      8.35097668192107
  H   6.01825675914051      2.47919635938326      7.79459406555478
  H   5.39043957164956      3.60783025445377      9.01242912163179
  H   7.11853876171248      3.20801015220314      8.97909474325190
  C   7.71797556696733      5.20784536269765      7.40717885481823
  H   8.50636652565977      4.88121897171164      8.08293525239241
  C   7.99349630563078      6.30919048454670      6.53242834615869
  C   9.23813835102726      6.99053646858196      6.47469040505767
  H   10.05228904860119      6.68409213299637      7.12880830449994
  C   9.41361014324522      8.03204877418119      5.56944325162600
  H   10.36325128484221      8.55463140337974      5.49172429336651
  C   8.34726251224465      8.41189685648214      4.73271428876688
  H   8.45129140906176      9.20937589430893      4.00048540032788
  C   6.97754996262146      6.75674782741711      5.65195059512752
