54
Coordinates from ORCA-job ATOFUM-OH_2_1_tpss_d4_lanl2dz_631gpol_Fe3.opt
  Fe  5.46752573700906      8.00491634561259      3.39116922392102
  Cl  6.43808133680244      9.47389818898920      2.02597195128411
  O   5.81524631259545      6.59466618830660      2.37764202873926
  N   4.84547667861447      9.52166171307099      4.54342516158933
  N   3.78655093407572      8.37297839233358      2.44233214973001
  N   7.11240691224985      7.73888062135989      4.46422838332044
  N   4.67191685987822      6.77669845776356      4.69127483258660
  C   3.33182866146873      7.74695559218119      1.34800203529668
  H   3.90692453854609      6.89017481016804      1.00867823557613
  C   2.16712592716842      8.19136337039659      0.69203640764168
  H   1.82794192332056      7.65838529926820     -0.19222861440119
  C   1.47572093290784      9.29919472106346      1.17036811713277
  H   0.58221047131410      9.64531716496447      0.65712991282140
  C   1.94343853357570      9.97957940822264      2.32414319854399
  C   3.12063618546912      9.46453131987912      2.92208612668888
  C   1.31308596137174     11.14779140143714      2.91070060832386
  C   0.06479359792502     11.72087550161944      2.28824704764267
  H   -0.29089836206705     12.58509512206134      2.85736992405263
  H   -0.74370195471065     10.97679704002666      2.25752927920776
  H   0.25413059230467     12.04859016134943      1.25608315511392
  C   1.88084554878982     11.72060135222103      4.03288384765893
  H   1.41600058351344     12.59997656987554      4.47518180585242
  C   3.07705990331781     11.21343821558570      4.64179450012624
  C   3.71192621841575     11.77436065180746      5.77806346640405
  H   3.28863302069394     12.65257197493347      6.26161531679186
  C   4.88207934504828     11.19683458240176      6.26129845586756
  H   5.39342772247690     11.60918340227288      7.12695336940715
  C   5.42979413096500     10.06934289084879      5.62072819204881
  H   6.35132998488365      9.61379038374596      5.96659286953681
  C   3.69095477373806     10.07566924411275      4.06789650649881
  C   3.40688480221911      6.33551392537832      4.75027799843162
  H   2.70904319603162      6.74679426817950      4.02875047921691
  C   3.01412249714843      5.37196714405857      5.69548353997402
  H   1.98173388514123      5.03302402211026      5.70747319638966
  C   3.94615094849258      4.86124063526045      6.59489006314138
  H   3.64273831456629      4.11440782902302      7.32435818700206
  C   5.28897846699496      5.31424313421473      6.55663083876020
  C   5.59685215864175      6.28464085244907      5.56944858992712
  C   6.33951791301718      4.84973677250594      7.44362409475029
  C   6.03721823984871      3.80864083321686      8.49214294355716
  H   5.67548911889431      2.87770195706413      8.03284293505715
  H   5.26287643630100      4.15826825660413      9.18981284021708
  H   6.93337045032039      3.57148662040958      9.07351455964566
  C   7.61042539863743      5.37453065918521      7.30260280755706
  H   8.40570869096723      5.03101928639136      7.96168457296423
  C   7.93651669553693      6.35889175207344      6.31252626332417
  C   9.22377337781331      6.92880807720860      6.12678830444723
  H   10.05100179611255      6.62116920027939      6.76354347599920
  C   9.41348870483517      7.87651765633606      5.12869046765483
  H   10.38715968768953      8.32960334280020      4.96211538390437
  C   8.33640392063808      8.26584060431023      4.30412300425555
  H   8.44926273125153      8.99842353120794      3.50980441779392
  C   6.91149623684957      6.80523991112742      5.44401011319504
  H   6.50567332038808      6.82086964072473      1.70817342782868
