34
Coordinates from ORCA-job FULSEK-CH3OH_0_1_tpss_d4_lanl2dz_631gpol_Co3.opt
  Co  6.58693912283311      4.61207147570843     18.77020612957376
  O   5.43558521360223      4.64034987083866     20.28953698004998
  C   5.63131551127661      3.69088411824828     21.18969614434954
  O   4.99963791943579      3.56052677414634     22.23257453613836
  C   6.72621705473815      2.66468502488528     20.80994022918471
  N   7.62816454327909      3.22405461673287     19.76520003137897
  C   8.83348317648444      3.93290128011155     20.30176917034673
  C   8.42277695058131      5.35770733377474     20.67329810616246
  N   7.74989641148157      5.95894299313836     19.48392399789476
  C   6.83409666088565      7.10625658469739     19.78832918470446
  C   5.82127344382474      7.18887595783147     18.62449315728064
  O   5.22711891037454      8.22593097450051     18.35680388917912
  O   5.67838062316400      6.04449836903820     17.97724361502661
  C   8.71131539027501      6.30668579525884     18.37622392696102
  C   8.84003591640195      5.15430802233901     17.36177254017814
  O   9.83254372663766      5.03984831523814     16.64902151429539
  O   7.78692145468577      4.36157550855604     17.33880245947573
  O   5.28051100558842      3.42579624977273     17.90243534866451
  H   6.23349045975581      1.77727289267245     20.39372125311966
  H   7.28121575260283      2.35266336342598     21.70390731907267
  H   7.93953217204329      2.50313821221190     19.10799824613943
  H   9.24423479911237      3.39984647966592     21.17063895491140
  H   9.58912492220080      3.94258137106348     19.50862545674112
  H   9.29233045761953      5.96038096447172     20.97241528887672
  H   7.69600367880911      5.35547654100460     21.49237772528059
  H   6.29072725193704      6.87373385376812     20.70993088405384
  H   7.39972877127845      8.03897640910764     19.90393223294795
  H   8.30192501006106      7.17302265232041     17.84469934438415
  H   9.68703844998999      6.58207964355915     18.79451933235226
  C   5.62143647997916      2.15716489564033     17.30046721018596
  H   6.49841837734304      2.36557876841108     16.68501906777579
  H   4.78484384947445      1.82586799241300     16.67550267921257
  H   5.85006972753262      1.39452097722453     18.05963043333176
  H   4.51501680471002      3.36447571822261     18.51309361076833
