30
Coordinates from ORCA-job FULSEK-OH_0_2_tpss_d4_lanl2dz_631gpol_Co3.opt
  Co  6.44518621854718      4.30962405645746     18.84681244079365
  O   5.52102353476542      4.64579877077975     20.45505578332717
  C   5.61759094587342      3.69560262963160     21.38348682652142
  O   5.00578845786670      3.73021152532711     22.44150094530270
  C   6.56928951883748      2.55074091641860     21.00377301420583
  N   7.49217580383317      3.03219741076163     19.94539665903480
  C   8.69702611416771      3.79176020117677     20.41044618057088
  C   8.34168973297322      5.27299688647638     20.62946291469244
  N   7.66579894351102      5.79858626551432     19.40394296159787
  C   6.72365500726876      6.94409515345340     19.59451022788261
  C   5.65204864964958      6.85962899689266     18.47843345774198
  O   5.01038834916789      7.83832324424353     18.12771999652699
  O   5.50351090849047      5.64765699308013     17.94956120719408
  C   8.60906903137771      6.06804857410629     18.27713760619671
  C   8.73014215850051      4.84096777649011     17.36896392303008
  O   9.65785794705470      4.68791190577938     16.58527334742725
  O   7.73286729707882      3.98252364810937     17.50889165006937
  O   5.36349308723591      3.02494541403514     18.27234510325532
  H   5.97314072342581      1.73829102388580     20.57433104513561
  H   7.10852036828219      2.18165933771163     21.88521948764979
  H   7.76953741354620      2.28219301381762     19.30568855671212
  H   9.09082251059889      3.35559154039802     21.33904199744063
  H   9.46024605474546      3.69081575009844     19.63178881958871
  H   9.25168698765602      5.85126966658629     20.84647683142394
  H   7.64607853006409      5.39174649311690     21.46458649913917
  H   6.22612631542754      6.83307921858577     20.56140831162870
  H   7.25302745436815      7.90318044948236     19.55017582219588
  H   8.19968124839253      6.88752547339950     17.67514373477390
  H   9.59028254528813      6.37779223275120     18.65730228677450
  H   4.69273814200478      3.52225543143251     17.74707236216429
