30
Coordinates from ORCA-job FULSEK-OH_0_4_tpss_d4_lanl2dz_631gpol_Co3.opt
  Co  6.23584810632270      4.41011065566010     18.74156969689327
  O   5.39481362220854      4.53856496775288     20.44345026338560
  C   5.55071752780583      3.62121008576573     21.37901974589306
  O   4.92593982252559      3.59914095641683     22.43225391234618
  C   6.62810418022717      2.55376432340775     21.06330426644943
  N   7.53498190603376      3.02068916412695     20.01182418854102
  C   8.70799524920097      3.82073418299232     20.40239058455820
  C   8.29955306076483      5.28679065871957     20.60389345426566
  N   7.59460801233506      5.80309309235305     19.39531767726508
  C   6.78315933444439      7.02420186190948     19.67402357193814
  C   5.71700035341442      7.16058884704689     18.56434330967384
  O   5.20696385552331      8.24153647943199     18.30009293380052
  O   5.42985175772970      6.00695113657303     17.98548715972399
  C   8.50689400242435      5.99835470458259     18.22683434147312
  C   8.57164160305341      4.74360120700682     17.34220715785534
  O   9.50745879371714      4.52132443380940     16.58777190113356
  O   7.51058905284705      3.94147790742854     17.44281520499116
  O   5.22172617905782      3.03373510029982     18.24804155661290
  H   6.10789224433097      1.66420204139229     20.69213228721437
  H   7.15911204022257      2.29957080249625     21.99106517927121
  H   7.77024439492139      2.30162407516949     19.32873492727402
  H   9.15853688171759      3.44129383632737     21.33293664455024
  H   9.45442577678320      3.73262163233147     19.60488319805963
  H   9.18536879253197      5.90550981700992     20.81342985892041
  H   7.60619402540573      5.37859735022616     21.44540066281433
  H   6.26416261796737      6.87401965700828     20.62685041124114
  H   7.41569350990999      7.91919404397664     19.72992703101735
  H   8.09871627578846      6.80745362867907     17.60913891803065
  H   9.51179238047815      6.29048531173049     18.55702140835769
  H   5.54050464030611      2.79657803836853     17.34478854644757
