34
Coordinates from ORCA-job FULSEK-CH3OH_0_5_tpss_d4_lanl2dz_631gpol_Co3.opt
  Co  6.60581605040879      4.24153975108035     18.79484951691614
  O   5.40392711576821      4.19660769599611     20.24912632768781
  C   5.60045069699764      3.56215348455493     21.40078404447534
  O   4.84472721059641      3.60698644935553     22.36143417143022
  C   6.88294097500462      2.70292163220998     21.41768304487107
  N   7.82005696449175      3.14221878682119     20.36869622974413
  C   8.86085631744301      4.10718023833461     20.79961737612087
  C   8.31759222388176      5.54302850469957     20.77436228434060
  N   7.83506960377111      5.88488194921702     19.41431038777684
  C   6.89644625149811      7.02699039783607     19.33961320215515
  C   5.99964342211256      6.87050889724934     18.08226861591138
  O   5.41157194485977      7.83522268120782     17.60940609920681
  O   5.92347400271331      5.62911465793162     17.62634917051690
  C   8.92216382972942      5.95978261480217     18.39972605442027
  C   9.18669635512087      4.61722923980961     17.67306060863588
  O   10.24663872396677      4.45563976124388     17.07455459883007
  O   8.20152749027373      3.74272906220319     17.73569245287852
  O   5.77811093476532      2.74515875267198     17.56268133432711
  H   6.58469249671491      1.66804341435865     21.20879148511324
  H   7.32817916970373      2.73282226965281     22.42212709982665
  H   8.25330586046043      2.35764365549843     19.88021967722430
  H   9.21784911027328      3.87279805516962     21.81502722339394
  H   9.71116117405841      4.00983503256505     20.11558779630671
  H   9.10300737299161      6.24516115058651     21.09997760724113
  H   7.46591126088653      5.63921350196054     21.45836582263980
  H   6.24307729379636      6.99495715549027     20.22085847028398
  H   7.41506727262389      7.99493634535424     19.31380841917546
  H   8.61904777827555      6.68122656391335     17.63134578080819
  H   9.85551551714086      6.32204504186463     18.85228230798720
  C   4.52772620758089      3.06108063158115     16.88242989958884
  H   3.76702377820803      3.07247673232692     17.66573881381328
  H   4.30865881582830      2.27315387321197     16.15274933543949
  H   4.59503481237931      4.04654855296453     16.41044211194084
  H   6.51838196567395      2.72084346627584     16.91378262896975
