29
Coordinates from ORCA-job FULSEK-oxo_0_1_tpss_d4_lanl2dz_631gpol_Co3.opt
  Co  6.35233633620287      4.35816164690113     18.75944824549850
  O   5.39657891368502      4.66946107427614     20.37784635437376
  C   5.57281331486471      3.75977372581500     21.32636411364622
  O   5.04162465311479      3.82132585193210     22.42686381050079
  C   6.51132141209461      2.60397349114713     20.92580573061634
  N   7.42806624650585      3.07225867322479     19.85233858450330
  C   8.66640266410080      3.77635176171143     20.31078018394808
  C   8.33146819282794      5.24120840238679     20.60729587643427
  N   7.64300938797142      5.81479685523519     19.41627929792546
  C   6.75567671675335      6.98131414939044     19.68972897190187
  C   5.70365937800045      7.00336964840931     18.56467896012157
  O   5.08731859070747      8.01020112793738     18.24869356167632
  O   5.54066981377269      5.83979588377787     17.94243412583717
  C   8.57148163695406      6.10094945522917     18.28066798452569
  C   8.66663160338720      4.90236431233721     17.33005793539195
  O   9.61719610028060      4.74088960556815     16.57370679247367
  O   7.63502960744498      4.07701747189902     17.38327427624019
  O   5.34231626680912      3.17996842650727     18.19964868734976
  H   5.90164628612690      1.79506637869249     20.50781696721086
  H   7.06547355755066      2.23319543498959     21.79605267467791
  H   7.67094989064335      2.32334752873860     19.19744031410546
  H   9.07420284473107      3.27961973828318     21.20168230838446
  H   9.40009615965471      3.69857536377399     19.50200344325789
  H   9.24588599253287      5.80639288590201     20.84014183175917
  H   7.64943404976630      5.32392102529077     21.45924519025001
  H   6.24598078563105      6.82323679647568     20.64408594051319
  H   7.32161354845964      7.92050440129533     19.71489482175076
  H   8.16383836884178      6.94280857988206     17.70927955492510
  H   9.56457768058348      6.38515030299061     18.65024346019952
