28
Coordinates from ORCA-job FULSEK_0_3_tpss_d4_lanl2dz_631gpol_Co3.opt
  Co  6.36317165251347      4.44451782908149     18.80327132225372
  O   5.35788334005456      4.55562882015844     20.38271298512441
  C   5.49344816059085      3.62857667085152     21.32587173934050
  O   4.86691465324922      3.60942957455480     22.37421668024150
  C   6.53026168910849      2.54660532003020     20.96715328172636
  N   7.39660406755881      3.05823418006874     19.87431317605744
  C   8.62892241752621      3.79423079690596     20.32138465892935
  C   8.33920343163853      5.28151208197799     20.61368882838217
  N   7.72048916826044      5.91497423736882     19.42901424885845
  C   6.79622345470053      7.05389604191898     19.64845567211446
  C   5.71304028391180      7.04012553715647     18.54058162839074
  O   5.14168027500333      8.06249557743109     18.19020617001505
  O   5.44142893416959      5.83691100540445     18.02852920393420
  C   8.63293414985538      6.10404300556858     18.27434360281621
  C   8.60455404903281      4.90873113422508     17.29971719178520
  O   9.47612664528267      4.74974321647507     16.45742534368284
  O   7.56948551388584      4.07991974713777     17.45356572143111
  H   5.99678848275127      1.66348052716924     20.59547988901539
  H   7.11316286268045      2.25517455141728     21.84984406103048
  H   7.67584909316956      2.31247398530057     19.23120033702495
  H   9.04585698661902      3.31313111826514     21.21718083250401
  H   9.36175378473887      3.70470101939546     19.51244788136784
  H   9.28245596913095      5.77743159789572     20.89520754708041
  H   7.63609957965411      5.38090053318325     21.44742703410407
  H   6.28992476136929      6.90483015085418     20.60879607658827
  H   7.31433133547023      8.02189529711775     19.65351533467432
  H   8.30647503552213      6.98834250567834     17.71343657436204
  H   9.66573022255134      6.28366393740745     18.60331297716397
