46
Coordinates from ORCA-job AMCPCO-CH3OH_2_3_tpss_d4_lanl2dz_631gpol_Co3.opt
  Co  2.20454847249653      6.23088681311991      6.47539129890726
  Cl  -0.07083446165380      5.95139298311758      6.87603196751194
  O   4.42240038270277      6.56240864193439      6.12925985019489
  N   2.02571260111406      5.73335598497857      4.50632890043955
  N   2.46298318079715      4.25961332112144      6.79412763903222
  N   2.56456498448483      6.75542211021501      8.41650548169414
  N   1.87704251924719      8.19769725798808      6.16571774526113
  C   1.72327555399334      4.26293267938885      4.47586350647683
  C   2.67029811709946      3.59787087146598      5.46164096646875
  C   2.36009929398324      2.10436717449510      5.29085335219992
  C   2.08888410624397      1.98992665526478      3.74523943497592
  C   1.93716800427474      3.45254576206455      3.19173786396360
  C   1.99781117596957      8.13393574729481      8.59240870134802
  C   2.39446836309569      8.93953832484369      7.36488247449664
  C   1.87313105967584     10.34730605427452      7.68380470102343
  C   2.13703053633359     10.46398617202453      9.22992462897169
  C   2.46454703930405      9.01975200258066      9.75468744763364
  H   1.28807441823424      6.26763647280285      4.03018129552394
  H   2.91249009630447      5.92760162467656      4.02144781616338
  H   3.19893947964526      4.00022020602297      7.46310152441194
  H   3.57972289303426      6.75966159576747      8.58296475050752
  H   2.14033336801901      6.09871535914318      9.08342769167247
  H   0.84820709908149      8.26775147400186      6.12614500330862
  H   2.23457745102540      8.59755427524341      5.28830739297315
  H   0.68979260752789      4.16733018614434      4.83490564668773
  H   3.70754663548266      3.81489646030381      5.16937573067671
  H   3.17318832718453      1.45442512383415      5.62890940386767
  H   1.45707762684462      1.84395230845922      5.86003774886951
  H   2.90828341734108      1.47435548330811      3.23548408751190
  H   1.17927120396068      1.40809027270162      3.56845585218337
  H   1.11326864353960      3.55165662046104      2.47839075967076
  H   2.86178102386674      3.77454455630572      2.69113390075680
  H   0.90714557479027      8.00457055034192      8.60675185215400
  H   3.49134808279220      8.94495330706649      7.27447379042824
  H   2.37261005207196     11.13203562227742      7.10702595591950
  H   0.79645487202116     10.40246259684467      7.47172210122750
  H   1.25372710698492     10.87266625177191      9.72961812256627
  H   2.97061374409122     11.14113642249656      9.43926988906669
  H   3.54705473488530      8.90144309843946      9.90817525628735
  H   1.96204067293395      8.78760874743672     10.69861943219322
  H   1.56500340170964      3.95578287583213      7.20112690679188
  C   5.62674515311824      5.73121389284893      6.25060882678044
  H   6.06753146373277      5.55873244406189      5.26328788733797
  H   6.34912624910663      6.21777956484575      6.91403991595146
  H   5.30575463499620      4.78417568131974      6.68864153285933
  H   4.70836903651111      7.44859836906696      5.82903396505041
