40
Coordinates from ORCA-job AMCPCO_2_3_tpss_d4_lanl2dz_631gpol_Co3.opt
  Co  2.00466666725889      6.15406876753620      6.55682905916605
  Cl  -0.22886657922689      6.15342984796784      6.58988253874577
  N   1.95528851456053      5.62289510398901      4.63442681504040
  N   2.60741802985490      4.24165205795085      6.94530098809119
  N   2.01137806959574      6.68635131128534      8.47944408288090
  N   2.59027366625406      8.06889068771653      6.15230493518637
  C   1.86327237553425      4.12282719968592      4.62943505630198
  C   2.90411948193929      3.60505109588094      5.61336557566578
  C   2.80749675379483      2.08125970703970      5.45258126784764
  C   2.54688602629509      1.91945945796747      3.91018214908228
  C   2.17603737200852      3.33890888870538      3.34773425879630
  C   1.91699083221272      8.18655469166751      8.48861054363242
  C   2.92661580677796      8.70630974131630      7.47407657164819
  C   2.83220110322254     10.23023852681309      7.63773741597123
  C   2.61207326586585     10.39188647838344      9.18657639429193
  C   2.26739486376655      8.97069760897901      9.76040658149831
  H   1.13117030169488      6.04438704110380      4.18310187710193
  H   2.78501185044915      5.92795765380648      4.10503168674265
  H   3.38800336101108      4.11990960642966      7.60405326960214
  H   2.85685362570377      6.38238063796904      8.98399636902776
  H   1.20168938311856      6.26304125981428      8.95456551905213
  H   1.75938284122507      8.52416165458310      5.74401784843625
  H   3.35013212703263      8.19195863383764      5.46991385093466
  H   0.85498537958710      3.88940685601602      4.99873809979698
  H   3.90135458900284      3.96722717113686      5.32200106355793
  H   3.70707241325793      1.55744519024813      5.78977870625060
  H   1.95368027133122      1.69879640216534      6.02956288910894
  H   3.43296577080370      1.53192537309205      3.39877407465727
  H   1.73352913092529      1.20724845119206      3.74225724149631
  H   1.33591859693078      3.31389932509032      2.64719791722146
  H   3.03780994289554      3.78682253266278      2.83252519208122
  H   0.89735442323791      8.41874793194217      8.15108724899633
  H   3.93289143968460      8.34596209754610      7.73479786910424
  H   3.72202955715601     10.75495530722888      7.27698797250085
  H   1.96287170364997     10.61151191880200      7.08368655483162
  H   1.79742159299305     11.09736150083491      9.37590296619965
  H   3.50792652972410     10.78779925162136      9.67401338474594
  H   3.14765780728127      8.52673760463290     10.24711606185769
  H   1.45020615165995      8.99132990756069     10.48813359175390
  H   1.79023495992856      3.78454551779836      7.37846451109431
