40
Coordinates from ORCA-job AMCPCO_2_1_tpss_d4_lanl2dz_631gpol_Co3.opt
  Co  2.27687671260664      6.15484879325854      6.55327260144283
  Cl  0.06086975291838      6.15457346649113      6.58625561638314
  N   2.28155735166529      5.65101352618232      4.62857927237675
  N   2.32505325597318      4.20578169091290      6.95999851794067
  N   2.33978789904992      6.65870185840630      8.47681642174440
  N   2.31259900285160      8.10401739360811      6.14461902847111
  C   1.99706375770887      4.17434397942223      4.55802868654975
  C   2.76976103564078      3.52483813955029      5.69658263363458
  C   2.50478191723508      2.02604307841118      5.48468747978194
  C   2.52040412431251      1.90350096715359      3.91782678187333
  C   2.42527494800319      3.35856833474294      3.33179768972164
  C   2.05340215900267      8.13442512173226      8.55579130415507
  C   2.79022660885869      8.78702261175366      7.39525176726130
  C   2.52396537848894     10.28435415197131      7.61475525364753
  C   2.58686880957923     10.40746641754615      9.18034587557674
  C   2.51454501606841      8.95182954004093      9.76891223070507
  H   1.57092706306668      6.18264142761175      4.10796112761422
  H   3.19053949532928      5.85223627152218      4.18215245272987
  H   2.91402277973445      3.93072094264660      7.75828618879940
  H   3.26238673697738      6.45947583174028      8.89525054305462
  H   1.64661247610441      6.12544713178454      9.01875386616616
  H   1.34176076393443      8.38552399825413      5.93687307072434
  H   2.87901331802356      8.37861396275976      5.32991471745762
  H   0.91892568454907      4.07467012659053      4.74214098032421
  H   3.84374164130012      3.74510532449602      5.59163327024966
  H   3.24883271353549      1.38723729081536      5.96990848301556
  H   1.51512753153218      1.76525336953784      5.88466991172218
  H   3.43627173050122      1.41628326325258      3.57047778559463
  H   1.67707335146017      1.29160660693793      3.58358540488992
  H   1.71786414479304      3.43729211097022      2.50072941169588
  H   3.40903916787993      3.69504502894201      2.97362260456867
  H   0.97004617704077      8.23089498724243      8.40339345002797
  H   3.86777340021871      8.57189097763289      7.46954298075887
  H   3.24944844562321     10.92705637777281      7.10696822201188
  H   1.52145105783789     10.54006068248087      7.24449721068975
  H   1.75238251386404     11.01697303806507      9.54011686984077
  H   3.51201417330281     10.89671825416754      9.49900095900386
  H   3.51035164545691      8.62003146557824     10.09701859993414
  H   1.83242491392175      8.86975572308980     10.62046548181951
  H   1.36033134404897      3.92413673492441      7.19411524604010
