42
Coordinates from ORCA-job AMCPCO-OH_2_4_tpss_d4_lanl2dz_631gpol_Co3.opt
  Co  2.45873492591783      6.14300101933512      6.58718622433190
  Cl  0.27586722415556      6.08517407548853      6.64941779164184
  O   4.20470302494899      6.20549695841958      6.52713889885171
  N   2.31398388525465      5.51024608798139      4.52849387509864
  N   2.48412990565016      3.94045144831336      6.93504738568155
  N   2.36659934526570      6.80685646289036      8.64985572119536
  N   2.45441570214850      8.29443504723447      6.18400046537822
  C   1.98403389938585      4.06920156669933      4.52131743674388
  C   2.79631708317509      3.34733313513528      5.61235226343483
  C   2.43897857745118      1.86651196628107      5.36098612421152
  C   2.36867751994410      1.78074130674868      3.80061347951019
  C   2.32154442836648      3.24732200663244      3.25768145619244
  C   2.02777054605678      8.24728578979805      8.60958364932425
  C   2.81534572799151      8.92632727411994      7.47183549471763
  C   2.47885370480518     10.41851673551783      7.68475905212109
  C   2.44895712425883     10.55739142080016      9.24143629949448
  C   2.39896012375630      9.11100389692479      9.83575384799701
  H   1.60596630176723      6.07163768744010      4.04174869075581
  H   3.22826954408342      5.69142786125478      4.09441356024082
  H   3.13526788938651      3.61995442151871      7.66142074027990
  H   3.27985435308467      6.65865107489683      9.09697218222760
  H   1.66527919686703      6.25726776280443      9.15955787378227
  H   1.53470537891437      8.61094274381055      5.85281342069320
  H   3.14632782895387      8.49855454621157      5.45361589529360
  H   0.91450167931298      3.99217660282959      4.75701787237546
  H   3.86780494707776      3.51754275652672      5.43310911948869
  H   3.17470496092948      1.18420206644487      5.79908950306819
  H   1.46047462490834      1.64248869433530      5.80824380878481
  H   3.24313121575682      1.26007893662079      3.39765640733038
  H   1.47728853044098      1.22427356906615      3.49483002997846
  H   1.58190053194699      3.39203358067017      2.46387110501388
  H   3.30320420040977      3.55132136433524      2.86778446106087
  H   0.95283592611164      8.31131727803076      8.39692487948720
  H   3.88883889191928      8.74475708653511      7.61687602924761
  H   3.21131454861822     11.07586075923102      7.20510975073843
  H   1.49190249772352     10.63991409977269      7.25509233497268
  H   1.57211081350287     11.13437625241745      9.55153505290233
  H   3.33959035442896     11.07960084702260      9.60511763686451
  H   3.38643591899800      8.81239822290198     10.21556811217549
  H   1.67528708107955      8.99980232418689     10.64961627285248
  H   1.54102055935828      3.66955218808810      7.24237131982680
  H   4.75921947588668      5.51128107472700      6.95055447463179
