37
Coordinates from ORCA-job CEDVUF-OH_0_5_tpss_d4_lanl2dz_631gpol_Mn2.opt
  Mn  6.10840849332471     15.15628046059931      1.60667994884723
  Cl  3.82095323139966     15.22986272541350      1.70949625383314
  Cl  6.31349932215833     15.28446910057269     -0.70641704911589
  C   5.61512200081907     18.32714215460872      1.62861861636472
  H   4.58508322175308     17.97538625398673      1.61574312348784
  C   5.95168381740003     19.68878432962708      1.59606091996365
  H   5.16739539747381     20.44116133275188      1.56564373627505
  C   7.30273055744503     20.04657673782005      1.59338389422554
  H   7.59925754713372     21.09306265780514      1.55810019295485
  C   8.27814485249904     19.04249827256303      1.62259564050334
  H   9.33734254703247     19.28466704622589      1.59719169948951
  C   7.85871773321786     17.70565107304362      1.66705347841733
  C   8.80107854432268     16.57081598150674      1.65116197133304
  C   8.29404906983213     13.07620188595978      1.43699783510229
  C   9.15356500383138     11.80592763285845      1.35967805229403
  H   8.94351943014352     11.20101132732025      2.25249894651800
  H   8.80923647204026     11.23406180867160      0.48812348138774
  C   10.59015691050498     12.07486915201059      1.25608801535192
  C   10.27221769120449     16.75272841314266      1.66371103571961
  C   10.90273261662085     17.36785530102009      2.76300357235385
  H   10.30006504103144     17.73095230803032      3.59385536663039
  C   12.29610464249169     17.48669974735830      2.79124966918307
  H   12.78003074415917     17.95515734307777      3.64631131750239
  C   13.06715571060634     16.99568618857700      1.72818103367756
  H   14.15151445200679     17.08455267625486      1.75679656015795
  C   12.44422887086683     16.38953762803899      0.62907322229972
  H   13.03974239642934     16.01234326722442     -0.19961117069331
  C   11.05068173236720     16.26832488125183      0.59168542577699
  H   10.55938294421733     15.82192041124138     -0.27249127330423
  N   6.54636065934930     17.36722423619036      1.66973389059561
  N   8.23487574838273     15.39741120151083      1.58667467855067
  N   8.97537993169373     14.26175165161641      1.55488783736507
  H   9.99828031234934     14.31575900000375      1.56637241213487
  N   11.71704485469338     12.38205899556536      1.17473991504394
  O   6.26201197321365     14.94371165550743      3.39328706194209
  O   7.06492240294058     13.01270037753942      1.39525983844283
  H   5.35513312304333     14.88344478350272      3.76488084938753
