41
Coordinates from ORCA-job CEDVUF-CH3OH_0_2_tpss_d4_lanl2dz_631gpol_Mn2.opt
  Mn  6.55573836486414     15.30504502135991      1.38818964772076
  Cl  4.22211205973761     15.11167019976724      1.48025051796868
  Cl  6.68781972496538     15.46599519239231     -0.88613034758057
  C   5.72444703282166     18.12456188996820      1.68375671432549
  H   4.73028578258208     17.68353031164435      1.68488296952807
  C   5.94755320287597     19.49841442522143      1.68389774581554
  H   5.09967611707096     20.17818792714107      1.70421320744518
  C   7.27022516044983     19.97957946527547      1.63241729915261
  H   7.46824766636974     21.04935326903634      1.61078184489916
  C   8.32368952876196     19.07297616228728      1.58281270523419
  H   9.35571734369040     19.40562073297647      1.50503327790539
  C   8.04698469020307     17.69237718962217      1.60127647727255
  C   9.02542738341031     16.63998797217514      1.52420406822752
  C   8.30032073677159     13.17057259491354      1.28272887090735
  C   8.94642836108023     11.80798324804013      1.05687809193370
  H   8.61626926025673     11.12930099633810      1.85496976724542
  H   8.55273128713514     11.41295006824132      0.10989608386969
  C   10.40996901402010     11.86719118504292      1.01099654905007
  C   10.48380720520663     16.80459405451467      1.43763545731497
  C   11.19004761009289     17.55930454032812      2.39794890669755
  H   10.64439182998118     18.03061532806299      3.21394489461348
  C   12.58096724657926     17.67796355003924      2.31798459100577
  H   13.11602831144996     18.25972863597480      3.06681401778161
  C   13.28773090615743     17.03629923494616      1.29065884644007
  H   14.37147226624281     17.12251506216126      1.23804424477345
  C   12.59522844381880     16.28895636780117      0.32815758312382
  H   13.13627583107425     15.80266872078202     -0.48137973000980
  C   11.20220067490720     16.18022706083709      0.39176782644042
  H   10.65618445125551     15.65403930417334     -0.39137520437766
  N   6.73987527029795     17.22923499232066      1.65488423288619
  N   8.40719891980238     15.44784892072731      1.47985074005324
  N   9.09881278289077     14.25479441326936      1.42129324650282
  H   10.11766585338073     14.24656223038986      1.33270357508389
  N   11.57296738714379     11.99480366192275      0.98351095487523
  O   6.32625641199582     14.87089546826959      3.40701351425499
  O   7.05319896915408     13.27913427575282      1.32908674237367
  C   6.48717227023906     15.91830478521765      4.39213748920887
  H   5.79385647045137     16.74606661712017      4.20262082634508
  H   6.31959163030534     15.49649719200506      5.39060236270212
  H   7.51870849638931     16.26874889199576      4.30342654314867
  H   5.35723804411615     14.65150883994404      3.32294284784069
