41
Coordinates from ORCA-job CEDVUF-CH3OH_0_4_tpss_d4_lanl2dz_631gpol_Mn2.opt
  Mn  6.38700711259404     15.22309655329569      1.32704327433091
  Cl  4.10277915433921     15.21200569680777      1.36786224104553
  Cl  6.59617523317012     14.98447815780750     -0.96037464470692
  C   5.72009138162606     18.28274616102184      1.65049579658607
  H   4.69855736493415     17.90729791967327      1.65722155429012
  C   6.01501821872687     19.64399907640497      1.64741718267192
  H   5.21014912502912     20.37429881600204      1.66738826440445
  C   7.36733344107432     20.04162692931172      1.60347532021867
  H   7.63033989207853     21.09761524045027      1.58183889110266
  C   8.36454066369235     19.07550349866427      1.56434217639393
  H   9.41427916575598     19.34930981619997      1.49328563559183
  C   8.00141355914182     17.70974219527880      1.59133230216920
  C   8.92603575352874     16.61449953097868      1.51337074786341
  C   8.37615573932892     13.09351405561717      1.36691957410903
  C   9.17340709992860     11.81022784141656      1.11557336997799
  H   8.98094804890448     11.11545578164578      1.94386699988606
  H   8.76701132264520     11.35210420133330      0.20294178972243
  C   10.61296224822458     12.03698757607693      0.96277826277519
  C   10.39150877147869     16.75668733405594      1.43752296327095
  C   11.10563963096673     17.42382117697142      2.45487898036476
  H   10.56242004555338     17.83830526463358      3.30289882869613
  C   12.49803789201626     17.53373142829794      2.38585811795380
  H   13.03832768035290     18.04831083489647      3.17892602337123
  C   13.19909577321055     16.96695679659721      1.31176593741839
  H   14.28406313998095     17.04228313364155      1.26827831705113
  C   12.49980875118966     16.30686781423471      0.29213799297497
  H   13.03677247361047     15.87677459915555     -0.55105440351223
  C   11.10516065978149     16.21129801198986      0.34494014850571
  H   10.55604969367222     15.74868602121964     -0.47560873564850
  N   6.67726737692692     17.33087691814632      1.64162887214388
  N   8.30711073510074     15.41302331788675      1.44914401178986
  N   9.05867606828480     14.26375533004369      1.35625612968704
  H   10.06609536963323     14.33712686055083      1.19551709892351
  N   11.74721710769401     12.30261489159531      0.84639942442402
  O   6.12903620503424     14.88728544629700      3.46104707487759
  O   7.14600995442974     13.05847042192720      1.54605844242555
  C   6.52286688929061     15.90459139472342      4.40899942959788
  H   5.97415234577362     16.83900933504058      4.24074625557482
  H   6.35400831880760     15.53616904049364      5.42854839891054
  H   7.59053766510209     16.07243118374880      4.24701539743130
  H   5.14645292738544     14.79302439586525      3.47264655533514
