37
Coordinates from ORCA-job CEDVUF-OH_0_1_tpss_d4_lanl2dz_631gpol_Mn2.opt
  Mn  6.38949825548340     15.30791411241735      1.64248428441694
  Cl  4.12107975740361     15.13264878742410      1.69859597563629
  Cl  6.49318864453013     15.32542342843590     -0.69385566520934
  C   5.60385172885994     18.16196600194409      1.57127750531448
  H   4.60727258342411     17.73321844254592      1.50902677878095
  C   5.85265115876757     19.53601209899981      1.56085044494899
  H   5.01768259328697     20.22859677924869      1.49618335521299
  C   7.17641416688045     19.99329186515966      1.62975801287839
  H   7.39472166332947     21.05902773813955      1.61536828975470
  C   8.21684963372136     19.06636246181381      1.70057665682909
  H   9.25721818316717     19.37956910800235      1.72446202649658
  C   7.90800411778426     17.69843582033563      1.71714216755641
  C   8.88974158780487     16.62546112211734      1.70165896303548
  C   8.19297489688388     13.16213531279140      1.45415273266151
  C   8.88537303470995     11.80789215862383      1.31024347208667
  H   8.58935864536605     11.18030061160685      2.16184579634807
  H   8.49029594506348     11.33482799826261      0.40094659967036
  C   10.34496310021200     11.91366335964378      1.23580886920468
  C   10.35355599099109     16.80437343451464      1.69472749394877
  C   10.99480673542614     17.48898012507409      2.74657043038886
  H   10.40047559693441     17.89455502979403      3.56362750780229
  C   12.38756362428914     17.61537193428638      2.75144119518170
  H   12.87832321818443     18.13848656557956      3.57017917754109
  C   13.15056120633650     17.05808210032492      1.71535300524037
  H   14.23481123556550     17.15235500798742      1.72714222295247
  C   12.51831191267443     16.38198486257595      0.66317292826886
  H   13.10648035457042     15.95851837920542     -0.14845451083017
  C   11.12465639315112     16.25819750828920      0.64579062925868
  H   10.62547651191877     15.77532020660686     -0.19430839444311
  N   6.60563685047061     17.26646734450244      1.65983510928743
  N   8.29611489930357     15.44995823900386      1.62621043423638
  N   8.97967564502127     14.27116466103032      1.54431411416861
  H   10.00252003821472     14.26266446285061      1.51489127285064
  N   11.50106953268664     12.08774799446282      1.18156575774239
  O   6.45037654639333     15.11811924208356      3.43180128063850
  O   6.95230911086022     13.23902827466962      1.47382014857407
  H   5.55394490032861     14.80012741964485      3.69209393156888
