36
Coordinates from ORCA-job CEDVUF-oxo_0_4_tpss_d4_lanl2dz_631gpol_Mn2.opt
  Mn  6.13250155481406     15.26115073913009      1.66060407863867
  Cl  3.98001600445894     15.25628587776842      1.08570496924713
  Cl  6.82569609263834     15.31736244412745     -0.66788412136007
  C   5.60343602119985     18.25790031122327      1.61845299881129
  H   4.58516599472360     17.88071754203761      1.56605766090441
  C   5.90707901607243     19.62500414247316      1.59799721032186
  H   5.10197804536540     20.35261603521621      1.53883158513424
  C   7.24694465199477     20.01917996576062      1.64513932250069
  H   7.51648731957947     21.07294609336810      1.62000842687624
  C   8.24472355892502     19.04132838058333      1.71557619293471
  H   9.29793136913112     19.30827993174315      1.73389558544646
  C   7.87133095743227     17.69205190050434      1.74700046751135
  C   8.84758093941066     16.58998448687552      1.77412416406086
  C   8.22239491634006     13.12542228869928      1.55733789570379
  C   8.98259271078023     11.80733492951539      1.37899381403108
  H   8.70279877102766     11.13611890387259      2.20215578440093
  H   8.62046928458622     11.35310297707104      0.44687759449022
  C   10.43746078644833     11.97466526856209      1.32988015257540
  C   10.31347677087011     16.78928927884976      1.71715491582778
  C   11.00436347331572     17.42958166486098      2.76338718532540
  H   10.45270371987614     17.80198332706326      3.62512366770860
  C   12.39576585247986     17.56142065444322      2.69977889129000
  H   12.92899338660626     18.05053951787247      3.51287374150220
  C   13.10198945024714     17.05698923052441      1.59852720534754
  H   14.18488039813204     17.15742117912862      1.55588409720842
  C   12.41686997376697     16.42430040167335      0.55226382653090
  H   12.96276186475430     16.03971840547563     -0.30677835410363
  C   11.02503752351244     16.29010964907959      0.60568372247031
  H   10.47817815150773     15.83060487048933     -0.21771425354645
  N   6.56170328819958     17.32258771469410      1.69014138698760
  N   8.28286173681995     15.41882841955153      1.74319498852970
  N   8.97834681887479     14.26236464858639      1.70084423679100
  H   10.00064018802664     14.26733526603633      1.63125803557355
  N   11.58651228083928     12.19535000410178      1.29306994689819
  O   6.12912303622345     15.15174716356450      3.28650514053642
  O   6.98790409101858     13.14487638547179      1.55784783689307
