64
Coordinates from ORCA-job EPOSOS-OH_2_5_tpss_d4_lanl2dz_631gpol_Co2.opt
  Co  1.97120828975818      2.79266254533224     18.80417895089641
  O   0.75720503415845      0.12662704939158     15.26830648957386
  N   3.90615678734213      2.43061632010468     19.72972665888248
  O   1.99372081032881      4.53602994722839     19.19637888747279
  O   3.16849768817342     -0.36966088846961     21.97843554607055
  N   1.15425922949678      2.40548838177049     20.86087352500353
  N   1.98379438916798      0.68234656970001     18.67408803504112
  N   2.67847701228027      2.83525864487592     16.82549248364608
  N   0.06015615947291      2.70370040653454     17.70636249864091
  C   2.18966106296346      1.97724917706172     15.90451618869300
  C   2.46601588832036      2.14612863021497     14.54128957767943
  H   2.00066684243373      1.49246580101029     13.81221358225196
  C   -1.27508732245410      1.80813130629855     15.90569591007470
  H   -1.35365615481900      1.09817740075862     15.08885402017841
  C   0.18086441917804      3.19820729845702     21.36223988089026
  H   -0.19164445435086      3.97376210696617     20.70157421917649
  C   3.96875991790075      1.58143473083698     20.77742311607928
  C   1.24267592004437      1.23927702163145     22.97378797917506
  H   1.70224127188433      0.45619801817884     23.56773860365743
  C   -0.92353302094745      3.59051279364795     17.97469027919843
  H   -0.72027878190235      4.30427924552885     18.76597927289535
  C   1.58435120304713     -1.31307594514500     19.94859598786115
  H   1.67109142937497     -1.82972498755118     20.89877678557126
  C   0.22018093559276      2.05279733592877     23.47612728625420
  H   -0.14406391043459      1.91116262671405     24.49127247488583
  C   -2.12085214555926      3.62073948480044     17.25714826581808
  H   -2.88278901249406      4.35291921758719     17.51097265303557
  C   2.14689515744904     -0.04032862513322     19.80489012713914
  C   1.34934034780535      0.13120832683394     17.61456162564271
  C   0.86402753407719     -1.85767310145280     18.88447247309212
  H   0.38253874497425     -2.82797103413730     18.98376720431917
  C   -0.10968006935809      1.85004296545325     16.66980912600188
  C   -0.31772818881436      3.05231487081072     22.65739771390371
  H   -1.10538868936956      3.71272241430171     23.01044172879826
  C   4.93251343309295      3.28831282567691     19.52224785071667
  H   4.84557027779388      3.93974224269888     18.66094347457871
  C   -2.30547031558299      2.70461851648864     16.21601457562544
  H   -3.22848892029701      2.69821722554410     15.64049415038965
  C   1.11073936681803      0.96667435071474     16.35052977827625
  C   0.75541697068886     -1.13351803738515     17.69653475563067
  H   0.17825373603333     -1.50601029378974     16.85683112059338
  C   2.79812277801803      0.61588632845008     21.02926345669983
  C   3.30125758144110      3.19026998151356     14.13321818534169
  H   3.52973430756462      3.32595753575387     13.07851445284268
  C   1.67707699109732      1.45295066873083     21.66460621689573
  C   3.79867047027668      4.07816151751115     15.09242662259510
  H   4.41853622409834      4.92760924385798     14.81831168147850
  C   3.44435809652879      3.87731635328051     16.42443705996005
  H   3.72328923960934      4.58629097907476     17.19703262886373
  C   4.19768502390003     -1.31288601978179     21.57202502704630
  C   5.01908212823791      1.63982456261998     21.70429556055408
  H   4.99254635657598      0.99994374214084     22.58051066141421
  C   6.04169381321671      3.35807305917985     20.36231083347302
  H   6.84264488879403      4.06012974471446     20.14620876939227
  C   1.76920093286181     -0.82554559658434     14.83566016250655
  C   6.07029219566397      2.53530742474689     21.49386509819265
  H   6.89424017545055      2.58959919489329     22.20185826269784
  H   1.47643966223119     -1.10851429015739     13.82207223693272
  H   1.77943489368593     -1.71256892894160     15.47903932356754
  H   2.76844417864844     -0.37382664925687     14.82927320045674
  H   4.40087235979429     -1.90105862452605     22.46926516476574
  H   5.10899478483377     -0.79900462746890     21.24470824965377
  H   3.84492205136530     -1.96900492817205     20.76745024170597
  H   2.27510199283769      5.01199644240223     20.00527203965055
