64
Coordinates from ORCA-job EPOSOS-OH_2_3_tpss_d4_lanl2dz_631gpol_Co2.opt
  Co  1.97790113547987      2.66352066532444     18.79401350323319
  O   0.55451437479103      0.15838386353219     15.30317147240592
  N   3.66706569073799      2.64652105548904     19.83124652728327
  O   1.85705950379851      4.42439002028630     18.96478382141058
  O   3.26319926736413     -0.34018808742185     21.92293892710169
  N   1.05403913781783      2.31452319819450     20.89195790068266
  N   1.93331957845214      0.69265456078794     18.66559885345782
  N   2.89418416451898      2.55536125095676     16.78748762511082
  N   0.22380543244731      2.78586053598712     17.75327382530898
  C   2.20071468113338      1.86126996927704     15.86292907309421
  C   2.40434471663546      2.04452860498579     14.49006422812774
  H   1.77391087051550      1.52647240628718     13.77605056292676
  C   -1.27795942435460      1.98565553126127     16.04448115550531
  H   -1.45354624381784      1.27529196756174     15.24368599029044
  C   0.03022755725083      3.03122778934392     21.40037493195048
  H   -0.41280393527458      3.77214898435043     20.74332630577596
  C   3.87668673206416      1.70135682719090     20.77435087165068
  C   1.22859356682474      1.12649650996402     22.99104597341049
  H   1.73834654117436      0.36591832763239     23.57368794496528
  C   -0.66055761710745      3.76741894724355     18.04784228828903
  H   -0.32964490067078      4.48343010284121     18.79144073173835
  C   1.69706022357965     -1.34232231782888     19.91096762634411
  H   1.82634278211057     -1.86133909211308     20.85490080590252
  C   0.15983757365418      1.87180264826342     23.50670065255673
  H   -0.18829561569113      1.69885995959174     24.52264378907005
  C   -1.88832629009513      3.88397839238805     17.39700551386225
  H   -2.56560286010019      4.68734469331938     17.67418543022098
  C   2.17128737307564     -0.03294727693051     19.78260820165099
  C   1.32845414298191      0.11446727817296     17.59862167305576
  C   1.00093109624409     -1.91919199070624     18.84923068310329
  H   0.58485448931625     -2.91988036629592     18.94166917368055
  C   -0.07126766358161      1.93496736383769     16.74228221486637
  C   -0.44869586186335      2.83918729632006     22.69934945622963
  H   -1.27855602437933      3.43921053731014     23.06346904119887
  C   4.54529918523326      3.67820023331383     19.71851433415321
  H   4.29360282634394      4.43709045168478     18.98534077005545
  C   -2.21244694079373      2.96759964965105     16.39101539967945
  H   -3.16392637234502      3.02867848505249     15.86750825763136
  C   1.04712174380401      0.96249043426240     16.35377930811002
  C   0.82974967742430     -1.18841751672090     17.67206396864940
  H   0.26958321561434     -1.59027926516272     16.83676984981379
  C   2.79704140418461      0.63512156971574     21.01140769218183
  C   3.40822278889374      2.91827464332200     14.06256390408410
  H   3.58439226559982      3.07353197025381     13.00056088786392
  C   1.63421299769490      1.38764558321455     21.68298332633679
  C   4.17098798560042      3.59111400509264     15.02194653107856
  H   4.96692995229043      4.27544444830004     14.74057439423538
  C   3.86803959318361      3.39253806120852     16.36831017658128
  H   4.41381246326335      3.92256286398355     17.13901123670113
  C   4.33912700668937     -1.20287001616591     21.45718010450172
  C   4.96254028126234      1.79138144293192     21.65638969004176
  H   5.05528086675835      1.06451122334379     22.45605857902595
  C   5.67339772875530      3.79275249678740     20.52446885492482
  H   6.34827429330966      4.63342076309996     20.38764068571782
  C   1.47665343819164     -0.80488692680635     14.71321303198526
  C   5.88192002933831      2.83302773379505     21.52135533201535
  H   6.73106183068878      2.90666868160359     22.19688337660674
  H   1.35240033506440     -0.73313103369262     13.62910559330922
  H   1.21188109400699     -1.81709467796276     15.03636408859601
  H   2.51606693744849     -0.59023995841537     14.98600386984840
  H   4.74471350460312     -1.65865997597276     22.36296688162161
  H   5.11853572212707     -0.62984629044449     20.94076920119793
  H   3.96106397008684     -1.98298095523307     20.78678553241752
  H   2.26229598064474      4.69894171955505     19.81837836557114
