63
Coordinates from ORCA-job EPOSOS-oxo_2_4_tpss_d4_lanl2dz_631gpol_Co2.opt
  Co  1.96789881719012      2.65808209666612     18.78561744267558
  O   0.60296771910030      0.14546364799967     15.27502438630221
  N   3.68800976209240      2.61655045184995     19.84973449249769
  O   1.93403921105515      4.28515665282103     18.89333765622080
  O   3.22885419265199     -0.37772682119221     21.91870854899548
  N   1.06829733991577      2.31300632075490     20.85073079641120
  N   1.93715502544638      0.66928298380476     18.65680871978470
  N   2.89779085969828      2.54175023850691     16.82523235279175
  N   0.16751196039497      2.74136431056281     17.74295163463045
  C   2.18673533360728      1.89188143668736     15.88288510761165
  C   2.36224825400075      2.15168142394217     14.51800638838066
  H   1.70796038127472      1.67815752544185     13.79279609043064
  C   -1.29710056015191      1.93362505611814     16.00739267859698
  H   -1.45252454968974      1.22855698571623     15.19739538353306
  C   0.08743149687224      3.08022587399725     21.36954721739598
  H   -0.33731749352218      3.83113569216718     20.71387258582914
  C   3.89415308329208      1.65062724931445     20.76942680784843
  C   1.25385985069649      1.16902018261085     22.97173124891256
  H   1.75456081621039      0.40654011114901     23.55966408106685
  C   -0.73292748440662      3.70777310451351     18.03638996622761
  H   -0.43204142914462      4.42233888265834     18.79510837078027
  C   1.66163136749002     -1.36334353758000     19.89745616132230
  H   1.78426037628088     -1.88766670905310     20.83914833702926
  C   0.22124619748673      1.95792417980153     23.49480568983825
  H   -0.10953820764911      1.81692199337011     24.52136816784952
  C   -1.95489580075651      3.81075749859345     17.37239485071249
  H   -2.64870434367220      4.60080976485675     17.64687089250059
  C   2.16045204288598     -0.06277958333335     19.77123085275960
  C   1.31952129573533      0.10670967213728     17.59026454928839
  C   0.94634851482451     -1.92083072295114     18.83794062883493
  H   0.50739761006436     -2.91177315180772     18.92957181479019
  C   -0.09812035491988      1.89769206360817     16.71879888098393
  C   -0.36754927806705      2.93216438034317     22.68219597823787
  H   -1.16340983556693      3.57343571091940     23.05157061835572
  C   4.52611434274513      3.68107226532068     19.79572229104979
  H   4.24276301044218      4.47360323562977     19.11136536716915
  C   -2.25111737393328      2.89720250253382     16.35415279606671
  H   -3.19736982171023      2.94885814077767     15.82029644014012
  C   1.05217909246305      0.95740874172115     16.34293964765611
  C   0.78711339581773     -1.18367389409511     17.66322468429771
  H   0.21473235150401     -1.56910420549813     16.82666532684495
  C   2.79313847452341      0.59985456839506     20.99567533108486
  C   3.36468513204545      3.04033235405122     14.11903524559628
  H   3.51860267536708      3.25477701444466     13.06391911963587
  C   1.64297176486581      1.38747482177162     21.65092120893787
  C   4.15827634705759      3.64912328339129     15.09713300339110
  H   4.95931339060987      4.33541779625458     14.83579990639506
  C   3.87550912064253      3.39068130411185     16.43745204412101
  H   4.43479943910133      3.87496196561380     17.22833764506228
  C   4.29541821836822     -1.26018241927842     21.46721415540194
  C   4.97125003352898      1.72730510261414     21.66307117250882
  H   5.06948499862692      0.98144249063427     22.44408980619756
  C   5.64403447606749      3.78969783686558     20.61733839511023
  H   6.29189281401028      4.65791577565451     20.53199918167611
  C   1.56027800918997     -0.79874057392102     14.71542565995532
  C   5.87201559971570      2.79042697456582     21.56932833801671
  H   6.71500946296464      2.85489848990713     22.25349336744647
  H   1.04123785657180     -1.23922223122855     13.86188806738876
  H   1.82163861745915     -1.58010702580025     15.43842863736681
  H   2.47491045507902     -0.29605765311717     14.38325608046818
  H   4.70561153662419     -1.69632083442081     22.38060042948030
  H   5.07376699196815     -0.70592291397985     20.92925340379200
  H   3.90593741756326     -2.05443787791430     20.82029386831326
