62
Coordinates from ORCA-job EPOSOS_2_4_tpss_d4_lanl2dz_631gpol_Co2.opt
  Co  1.94423585320335      2.60058233881679     18.80357008116491
  O   0.59081885287245      0.17997642353492     15.28563475361272
  N   3.70740616344609      2.68801476077354     19.88380751020213
  O   3.29709353386600     -0.35777076806281     21.90244566103005
  N   1.09757164685762      2.31743175859289     20.82153588983452
  N   2.03644208683578      0.59169531168700     18.61497067001412
  N   2.79096597062881      2.67855909928092     16.84449526915004
  N   0.14117301728355      2.82005216586076     17.72318899244000
  C   2.18715967497003      1.90522480934225     15.91163624354289
  C   2.47260336760185      2.04373564062240     14.54799363377005
  H   1.91171598005479      1.46970923502771     13.81893897552245
  C   -1.30315608848822      1.94327010858066     15.99698143455413
  H   -1.45231997811643      1.20951742881804     15.21215004037753
  C   0.07717012151566      3.03111207385040     21.34991757124021
  H   -0.38118034625927      3.76869411200300     20.69910624499947
  C   3.95198951337912      1.67510223790758     20.75057457275560
  C   1.28746885292605      1.12854491681917     22.92018018283967
  H   1.79855396135768      0.36425723820559     23.49633247181568
  C   -0.78771742464338      3.77184124176116     17.98276523933686
  H   -0.53170108975430      4.49568994991374     18.75260497339651
  C   1.64601111472048     -1.37107212655834     19.92266574394096
  H   1.75378171428818     -1.89299248237805     20.86806253171629
  C   0.23023753944256      1.87753593123090     23.45264199929275
  H   -0.10418752967993      1.70449008760529     24.47316303830443
  C   -1.99899616409445      3.85471613422103     17.29733588038853
  H   -2.70729166510265      4.64152240501146     17.54257537875426
  C   2.22062967315647     -0.10612125402076     19.75299884591542
  C   1.30902375039655      0.08433695825393     17.59572526348572
  C   0.86495306241456     -1.89519889810548     18.88863614123418
  H   0.37309122264387     -2.85775141260439     19.01124704065084
  C   -0.11108136223959      1.93728670601569     16.72175928431552
  C   -0.38529804305180      2.84666440246285     22.65384966641127
  H   -1.20818429386892      3.45088974543962     23.02626226361629
  C   4.55484527759844      3.74553385102812     19.85284578769058
  H   4.28348749846770      4.56049685580732     19.18646680243462
  C   -2.26788601381607      2.91226358458079     16.29796345712650
  H   -3.20662995216793      2.93920513909168     15.74910387049975
  C   1.04087081819831      0.97429734091287     16.36803223783675
  C   0.68434181655386     -1.16102549063796     17.71160681073244
  H   0.03321817258315     -1.51597833138304     16.91975265809344
  C   2.85620500827870      0.60390124443311     20.96108208274681
  C   3.46043227027370      2.94584632540759     14.14175153353064
  H   3.69441788100716      3.06263585371485     13.08602632213603
  C   1.68804137539154      1.38116433027593     21.60890196340881
  C   4.13099872348264      3.69664090035419     15.11194020970459
  H   4.91099890950746      4.40564045452386     14.84759191049495
  C   3.75395603777474      3.54160251328664     16.44455432658529
  H   4.22826504300651      4.12887339573628     17.22334441732701
  C   4.32812068419978     -1.27145182838946     21.43536342670802
  C   5.05553185391831      1.71287217026032     21.61308504642500
  H   5.18991951088036      0.93063986765552     22.35116364410305
  C   5.69390420421184      3.82845272277326     20.64947022410512
  H   6.34163380666295      4.69849020761701     20.58417818838087
  C   1.51318159378227     -0.83247911704803     14.79216038659315
  C   5.94847789480953      2.78645934333463     21.54661262254054
  H   6.81186919641885      2.81983076628578     22.20721154032017
  H   1.25005399383468     -0.97540834004509     13.74117674365423
  H   1.38351074535079     -1.77642180959006     15.33268865891550
  H   2.55611595583661     -0.50542645941030     14.87817409234846
  H   4.78418600308397     -1.67465863109328     22.34242168269054
  H   5.08219620009620     -0.75114862965115     20.83189611554639
  H   3.89545280221124     -2.08779450974100     20.84567974769338
