68
Coordinates from ORCA-job EPOSOS-CH3OH_2_2_tpss_d4_lanl2dz_631gpol_Co2.opt
  Co  1.92824691726558      2.48847237377617     18.82591416510885
  O   0.79142200300644      0.07657782541538     15.22701854804152
  N   3.67679706530818      2.43888009470405     19.74709649216513
  O   1.79589722740739      4.78891851914146     19.06156294996395
  O   3.20140032913186     -0.48982739421291     21.92923539552622
  N   1.20155697192357      2.27280030550089     20.70102537264314
  N   2.03710157198834      0.39928692992788     18.61314422928614
  N   2.65248803334155      2.70390975176783     17.00563281771585
  N   0.16281660913947      2.52641768643030     17.82937455209963
  C   2.28630022655003      1.80472521743765     16.05321471028792
  C   2.73888539570823      1.92606266011610     14.73364802276922
  H   2.37857703888673      1.23709012146047     13.97982681744077
  C   -1.21948032609530      1.66129420733518     16.03808473054816
  H   -1.30443659447855      0.96637333280312     15.20936286144180
  C   0.27285560651480      3.10819103610920     21.22517426484453
  H   -0.05013500902744      3.91976639647880     20.58813412532352
  C   3.93255403329734      1.41201549254097     20.60239580660461
  C   1.22316201197877      1.09303874390020     22.81729430278242
  H   1.65145265804518      0.28706955355346     23.40365742743843
  C   -0.83282629074806      3.39822003238233     18.12015257209561
  H   -0.62463981896964      4.10723213853763     18.91077135344024
  C   1.52405165650239     -1.54613576049722     19.92301378838613
  H   1.56569222239536     -2.05123351295038     20.88246782174124
  C   0.23741437076035      1.94297569993703     23.32776864194735
  H   -0.13875529239007      1.80786432418491     24.33924565198449
  C   -2.04707145163194      3.43242570766246     17.43630163252873
  H   -2.80392375286843      4.15663627621492     17.72589749506000
  C   2.14823224048257     -0.30615119975214     19.75050035843693
  C   1.36237713027263     -0.12435104860233     17.57715694049951
  C   0.79209139527213     -2.07595268288231     18.85594201183236
  H   0.27242884054499     -3.02532694045618     18.96413915036035
  C   -0.03212791208177      1.69300238091855     16.77011071183782
  C   -0.23569173301421      2.97833934809620     22.51621373687964
  H   -0.98234811976159      3.68442451781743     22.86987520281383
  C   4.60953169192467      3.41253357484988     19.62098646429448
  H   4.34442797107168      4.24587766344241     18.98659939252934
  C   -2.25464943334157      2.53485658734596     16.38443687160830
  H   -3.19121742982138      2.52813861500526     15.83161738665936
  C   1.15880281140681      0.80161513112527     16.38404740886295
  C   0.70496156748997     -1.35616814496378     17.66033250247780
  H   0.09896277816360     -1.71108009854072     16.83306283708294
  C   2.79693401669219      0.41944748049631     20.92484084301118
  C   3.60750978707493      2.96253991369739     14.38270192880471
  H   3.97044303030772      3.05284434009589     13.36155075957262
  C   1.68145452729896      1.29284337867243     21.51462570240998
  C   3.95277181353392      3.90285353145954     15.35591409310273
  H   4.58211905371106      4.75926176502352     15.12895676786923
  C   3.43832011064635      3.74477403243394     16.63964935704396
  H   3.61187516357243      4.49313295756265     17.40170984701618
  C   4.13152705176565     -1.53181756108271     21.51952968992212
  C   5.12128377257766      1.36084729997507     21.34009669761538
  H   5.26206143188847      0.57237877907582     22.06910010288988
  C   5.83043503822261      3.39899127314419     20.28974352506714
  H   6.53488266845828      4.21262577899431     20.13903054920070
  C   1.71367534292219     -0.96592054034885     14.80138590576073
  C   6.09563529109634      2.34676808682660     21.16848389010745
  H   7.02483339037339      2.30586720137013     21.73200489482657
  H   1.62098653394465     -1.01371852501734     13.71303102796886
  H   1.43362510114602     -1.93300248811889     15.23181291573568
  H   2.74718320875695     -0.72884743759441     15.08241189852143
  H   4.74154053917759     -1.74497486021736     22.40145861635039
  H   4.76959541607110     -1.20044698464489     20.69107567889812
  H   3.59379533526554     -2.43832307471667     21.22268600751523
  C   2.14227005795873      5.68230775127515     20.15669598154133
  H   2.92238698133204      6.38947645024450     19.84975391917203
  H   1.25930950227882      6.23142450619976     20.50538222247475
  H   2.51802667201128      5.03986204955426     20.95601136299459
  H   1.45938395036437      5.31867943257815     18.31175828921484
