57
Coordinates from ORCA-job BAPCIF-OH_2_4_tpss_d4_lanl2dz_631gpol_Fe2.opt
  Fe  16.22014998861108      3.71222503531030     13.93017040185102
  O   16.86768809179450      5.24672202364464     14.55227469108625
  N   15.93378643447050      1.74312898784206     13.19130343652094
  N   14.87148587558351      3.67237034584823     15.54971342182429
  N   17.85422694411567      2.58203343045016     15.07979498610429
  N   14.40701179678198      4.60037753987965     13.01916608841879
  N   17.19602387773521      3.84135570654934     12.17549340140945
  C   14.70145924309879      1.03114834163022     13.67839858371130
  C   14.45312549326471      1.18484201612179     15.17857202492099
  C   13.86411571103756      2.55552745356904     15.51473642034531
  C   17.17593863295349      0.92444031586368     13.46724686344326
  C   17.86684263546450      1.26876611283432     14.75871430916550
  C   18.57978662967112      0.31825582259121     15.49608273181048
  C   19.34630580437636      0.74781542692413     16.58656266403763
  C   19.37213858665391      2.11260862419385     16.89857840027163
  C   18.60256578076342      2.98756574762051     16.12949036635504
  C   15.83613071867052      1.90824515377489     11.70063246701389
  C   16.88619319031343      2.88857861724385     11.25145354706057
  C   17.46325702679956      2.88778826512867      9.98078856297803
  C   18.36702506820890      3.90378540251407      9.64211957406452
  C   18.65939614182958      4.89330801180915     10.58758846233184
  C   18.05599017414853      4.83187623362218     11.84439272746619
  C   14.14670213215598      4.97843289524766     15.40599031403957
  C   13.65916201347184      5.18071428252670     13.99189548231062
  C   12.55807663864186      5.99231117596854     13.70154822298632
  C   12.23247376262955      6.24156845024397     12.36405427057506
  C   13.02542542768202      5.67522360087318     11.35741772343497
  C   14.09781658449734      4.86550230852701     11.72848198717014
  C   15.56029598467578      3.67039955855733     16.87636035207726
  H   14.78753895677127     -0.02811671139666     13.39697359534697
  H   13.85154232131423      1.45540211132989     13.13019232406505
  H   15.35592631447527      0.96917998248197     15.76578146584113
  H   13.71112572361436      0.42836035554533     15.46685486188910
  H   13.37293510890133      2.53274572087699     16.49821112562961
  H   13.10517719917139      2.81935887896946     14.76834675128404
  H   16.92164962086097     -0.14195396835790     13.41259886356880
  H   17.88108114807757      1.13928125703907     12.65314686525989
  H   18.54877749020272     -0.73170181238115     15.21278689428369
  H   19.91597011330617      0.03250753092255     17.17542138202306
  H   19.96519770533348      2.49382630620584     17.72577044541409
  H   18.56959073991811      4.04932711573649     16.36757563148506
  H   14.83482889550918      2.29832909239623     11.48162868059555
  H   15.93448561899176      0.93554751407215     11.19822325163364
  H   17.20414904335628      2.10656610021247      9.26974011172030
  H   18.82990010850593      3.92151183560482      8.65818985259051
  H   19.34548417468300      5.70584848521475     10.36386434446518
  H   18.22981623983744      5.58731003806792     12.60364304227395
  H   14.86641847916442      5.76949502958189     15.65193889197193
  H   13.31730838216684      5.02239803905686     16.12652187793756
  H   11.97603190910328      6.42923940900936     14.50996361340840
  H   11.38236880533458      6.87171617138231     12.11269998356151
  H   12.82008177051990      5.85698872802577     10.30573006322379
  H   14.74689374130281      4.42426616858166     10.97619517742700
  H   16.03146347028193      2.70008578712029     17.04494574593629
  H   14.82376806818959      3.86025042503606     17.66979034097848
  H   16.31189457745099      4.46187712065290     16.87610043324117
  H   17.83160788355219      5.20284640210199     14.73098189815756
