61
Coordinates from ORCA-job BAPCIF-CH3OH_2_5_tpss_d4_lanl2dz_631gpol_Fe2.opt
  Fe  16.19001642799917      3.60646401510331     13.91872970946442
  O   16.79502379432923      5.68377509019358     14.41503107248324
  N   15.84401123119477      1.56451848301563     13.06514030454682
  N   14.71466933047846      3.52440747749738     15.58119849712169
  N   17.73753298916428      2.50031325862350     14.94864212857024
  N   14.45497234497717      4.70587432055672     13.10706462597616
  N   17.21482570448285      3.65882124684713     11.99519769361903
  C   14.60759377444659      0.88374569851582     13.56572211783669
  C   14.37246821108202      1.03652192627859     15.07431809688424
  C   13.74373281419268      2.38273091904253     15.45834106572795
  C   17.06451924401195      0.75419252140308     13.37394691520982
  C   17.78258206618640      1.18027963261147     14.63419932035397
  C   18.54755682754164      0.26762420996388     15.36910102654246
  C   19.31739649234526      0.72808020059527     16.44251903540546
  C   19.30320556785520      2.09546709520760     16.74645861118179
  C   18.49906151899114      2.93764826122048     15.98043110860405
  C   15.74806210933676      1.76301565027373     11.58999050568220
  C   16.85429051277434      2.68360361517102     11.11983570027138
  C   17.45574733230679      2.56416863586491      9.86391372491621
  C   18.45346677727532      3.47657796563495      9.49729637391627
  C   18.82908186277406      4.47642665480507     10.40372582592137
  C   18.18684234348410      4.52953405583606     11.64132919453395
  C   13.95191955562532      4.80616069738130     15.47987179224054
  C   13.53995014695962      5.06432811481115     14.04744784005962
  C   12.32862725159066      5.67407776262018     13.70914363797752
  C   12.05231241805213      5.94329545988855     12.36290924444905
  C   13.00105786800104      5.59222763935129     11.39419082613201
  C   14.18285335526124      4.97585673287731     11.80778799382533
  C   15.38253942054195      3.46813252018748     16.91205619009543
  H   14.65336282896497     -0.18217016968535     13.29173841746527
  H   13.75786073856921      1.32265690395611     13.02750972065526
  H   15.28948988893818      0.83724481288616     15.64648473883302
  H   13.65995461712895      0.25442317770111     15.36964938949030
  H   13.20596609657912      2.29418690656584     16.41535936716475
  H   13.00804530394110      2.66476491880027     14.69419182295097
  H   16.81626905093214     -0.31623387043137     13.41278296135425
  H   17.77065080995824      0.88762898769582     12.54179906732078
  H   18.54593617345911     -0.78545184897830     15.09584630686366
  H   19.92008131296211      0.03530357025256     17.02562538844728
  H   19.89610177941606      2.50152076450272     17.56181741343549
  H   18.44646685110941      4.00143084567138     16.19114602472760
  H   14.77145281153383      2.22256535065472     11.38591595084484
  H   15.78262610983235      0.80483514783688     11.04838908901454
  H   17.15098683522286      1.76864114904524      9.18734131965709
  H   18.93608293968001      3.40106286613460      8.52539784821745
  H   19.60607786957201      5.19667193561874     10.16130271622916
  H   18.44148729503756      5.27992558707875     12.38510618237559
  H   14.61978937909910      5.60981648911995     15.81714746011448
  H   13.07601684161508      4.79199867899899     16.14617825954849
  H   11.61637702374290      5.93641562845640     14.48852125666482
  H   11.11596125396609      6.41713259459801     12.07708360338818
  H   12.83102895892152      5.78895245919027     10.33876309330749
  H   14.95156522232698      4.69070693490197     11.09318628959915
  H   15.90833073824104      2.51594773805824     17.01738526065994
  H   14.64290265200367      3.56391994641468     17.72136235002151
  H   16.10303235415034      4.28902423063816     16.98651327171147
  C   17.82548756659933      6.45389567967787     15.11094986527326
  H   17.59334589963104      7.52104580762108     15.05278793969036
  H   17.81519034222767      6.14098100090195     16.15820868421135
  H   18.80606687221776      6.25502329260047     14.66487460258432
  H   16.33267628915690      6.26134262213690     13.77690415862800
