57
Coordinates from ORCA-job BAPCIF-OH_2_6_tpss_d4_lanl2dz_631gpol_Fe2.opt
  Fe  16.30677559571672      3.83266612518994     14.02403219391617
  O   17.00247814278651      5.39186389805179     14.67934567269381
  N   15.85834739858709      1.74930228511562     13.12237948047488
  N   14.79442979406932      3.60878339018295     15.66554794537727
  N   17.76020483237462      2.62644713562586     14.96571253492166
  N   14.50441467165431      4.73727869886432     13.19238598610844
  N   17.29367162005505      3.81302785455434     12.11106183207615
  C   14.57248999455653      1.12494145212697     13.56994608310660
  C   14.36426403041666      1.15968130788719     15.08810563161259
  C   13.79213468420801      2.49392721923752     15.57240430368680
  C   17.02018812727313      0.86052760521187     13.46047868529729
  C   17.79106775944366      1.30251725808307     14.68137942620616
  C   18.60201782943320      0.42231123462835     15.40393181136917
  C   19.42859093564272      0.93189204934589     16.41283381556661
  C   19.43219560250659      2.31155376638630     16.66433738383006
  C   18.57925816458215      3.12760281981899     15.92512886169683
  C   15.81876175548844      1.94711030477056     11.64247882883596
  C   16.95584018599686      2.84832860811430     11.21642974696343
  C   17.60969978846725      2.73360933479446      9.98770852195080
  C   18.63393481847628      3.63917064123419      9.67636974618856
  C   18.98403081503473      4.62507677861270     10.60809146886140
  C   18.29201054812236      4.67898240868181     11.81846906830157
  C   14.06796764259012      4.91173145779452     15.57580154736324
  C   13.64232652475446      5.17263534901879     14.14957900863152
  C   12.47872344952850      5.87447310579877     13.82372737161061
  C   12.20520194054763      6.15718320392276     12.47985770237896
  C   13.11113095535609      5.73470092035897     11.49867122442898
  C   14.24755577181085      5.03062386847621     11.89617009922267
  C   15.51023992993982      3.53747132996984     16.97358431543320
  H   14.53688254035266      0.08903668933069     13.19754906817078
  H   13.76100329748863      1.67960102387489     13.08179575960905
  H   15.28314436446544      0.89203726926112     15.62936572868323
  H   13.62979945219112      0.38289378986568     15.33925740609295
  H   13.32760959417779      2.37816952589752     16.56335842257814
  H   13.00682798705896      2.81671314465669     14.87720678388724
  H   16.68576059471632     -0.18129779729472     13.56143216938004
  H   17.72086949974816      0.89098440059638     12.61372985456811
  H   18.59831621302612     -0.63970259623806     15.16818909639897
  H   20.06870130996368      0.26385784193045     16.98499670002829
  H   20.07769036915678      2.74772935149462     17.42202885080421
  H   18.51959528996969      4.20320120181442     16.07025738066550
  H   14.85476176780614      2.41301137465404     11.39930741438100
  H   15.85841678553697      0.98446345933760     11.11059532255302
  H   17.32602429269681      1.94888972640630      9.28973251105373
  H   19.15686494144455      3.56758561509173      8.72521320295140
  H   19.78058674319294      5.33644253652435     10.40652877906712
  H   18.52123547466406      5.40862928253367     12.59035085575139
  H   14.76608785460628      5.69684788512739     15.89518190215056
  H   13.20393754292838      4.92145235372837     16.25683780457606
  H   11.80312447541742      6.19870904278849     14.61208706152849
  H   11.30491179094747      6.70212541099103     12.20495558636395
  H   12.94545615181285      5.94669862600212     10.44566639422252
  H   14.98947674656775      4.70088818136383     11.17409456132357
  H   15.99481534550471      2.56201153068681     17.06702168457929
  H   14.79902830487345      3.66807617043047     17.80243006124579
  H   16.26271047144029      4.33017675103869     17.00717345998344
  H   16.89001748882338      6.32475679624628     14.41054587928945
