61
Coordinates from ORCA-job BAPCIF-CH3OH_2_3_tpss_d4_lanl2dz_631gpol_Fe2.opt
  Fe  15.95199138629229      3.39293265298283     13.88018363939740
  O   16.82888339812059      5.87904372427560     14.55107931274936
  N   15.61945490124867      1.31916499631701     13.09168184248418
  N   14.72356860831186      3.38310803002238     15.51277786886095
  N   17.47969577551769      2.46666483823581     14.74927567180808
  N   14.54649688995315      4.56908369684916     13.13987946238680
  N   17.05314088693871      3.44973570657356     12.23224687217468
  C   14.28652494396428      0.77179990192395     13.48027284424172
  C   14.00138335493896      0.96021836978641     14.97516037100259
  C   13.59220458695314      2.38851737889707     15.35101974876129
  C   16.71796723519104      0.43890259291357     13.58864298473744
  C   17.72349209904939      1.16610343700869     14.45603735325198
  C   18.86236884140472      0.50980698124865     14.93698619238461
  C   19.78445466764979      1.21025640287933     15.71895527547768
  C   19.54322047348165      2.56266865673726     15.99661100882381
  C   18.38547497049569      3.15015974867952     15.49555962570377
  C   15.72092979786212      1.52084438278576     11.62152790719520
  C   16.87481342835882      2.44932027154818     11.32416789767971
  C   17.69004714218453      2.33520978403303     10.19662571510217
  C   18.71545438741689      3.26791135511940      9.99283952922403
  C   18.89981299720171      4.28676350639344     10.93491793319035
  C   18.05345740194775      4.34435634702547     12.04226384420791
  C   14.10668024205672      4.75631563192278     15.50663043591316
  C   13.72406282568871      5.10539185031333     14.09278814851250
  C   12.65039399815477      5.93254675776706     13.75875549120164
  C   12.41152716802048      6.23262455720161     12.41197979354549
  C   13.25866886493710      5.68932528213273     11.43622184896478
  C   14.30885887134695      4.86533232414197     11.83494496950874
  C   15.38924293888617      3.16400012895338     16.83081238621062
  H   14.22384556431766     -0.29359520581211     13.20682021504693
  H   13.52826256090289      1.30657001605962     12.89367229086267
  H   14.84440714192081      0.61105839267284     15.58865660466996
  H   13.15472267416191      0.31056816749808     15.23526485273078
  H   13.03703761364008      2.38315992758631     16.30104281818309
  H   12.92130266513957      2.78669931932682     14.57923494942034
  H   16.28366188479277     -0.39066560878031     14.16298811219494
  H   17.24229808069230     -0.02071936415789     12.73865273690325
  H   19.02172193099678     -0.53860249020493     14.69281326041521
  H   20.67539537835501      0.71476093414051     16.09767366377599
  H   20.23688615276253      3.15211892025360     16.59031451321645
  H   18.14906422997029      4.19423534291452     15.67110581847844
  H   14.78031831427952      1.98598667847138     11.29339016252642
  H   15.82699183256312      0.57003387367224     11.07635935538351
  H   17.52194768606298      1.52546786964117      9.49005291497740
  H   19.36046918508945      3.19393974879123      9.12038581303236
  H   19.68814750956421      5.02612517557271     10.82016529931068
  H   18.14887193863574      5.10532354110677     12.81245270054323
  H   14.87484173658152      5.45419272600129     15.85949784915179
  H   13.24451065176347      4.79917178357200     16.18790289855857
  H   12.01216774048749      6.33235237196607     14.54334976141206
  H   11.57926040451703      6.87328811273545     12.12986531955507
  H   13.10889228249018      5.89666711929363     10.37991418516578
  H   14.99428040401697      4.42842866116066     11.11518880012948
  H   15.81723342518875      2.15968395444742     16.86155420521202
  H   14.65935001579347      3.27720119742984     17.64535622319043
  H   16.18755597889084      3.90047351715741     16.95277213508187
  C   17.53161081529075      6.89761349947561     15.32296017310409
  H   16.82813604489321      7.63576404851015     15.72672836736917
  H   18.01942536761429      6.37437854547444     16.14950406644673
  H   18.29041635822900      7.39734456585571     14.70891099701057
  H   16.35528334681964      6.33594536349853     13.82741296223683
