56
Coordinates from ORCA-job BAPCIF-oxo_2_1_tpss_d4_lanl2dz_631gpol_Fe2.opt
  Fe  16.11658002059820      3.67346821244604     13.96781868860490
  O   16.70119993861615      5.10862909307188     14.51713978359095
  N   15.71020080286675      1.70671313314858     13.17879339920646
  N   14.83264184049376      3.56999279098053     15.59108688932467
  N   17.61685448591355      2.71183304566925     14.82260542194186
  N   14.55095395221172      4.61108911792566     13.16897999381813
  N   17.18460403460590      3.73851724843485     12.31572117745501
  C   14.37700102614557      1.12482525491793     13.54407340160757
  C   14.13953210938410      1.15630212814872     15.05383141768205
  C   13.72449320337729      2.54287259978465     15.53323157087092
  C   16.80272557674041      0.76059554329311     13.61825187080462
  C   17.75282316949097      1.38352525006096     14.60299242864039
  C   18.77014101512168      0.64136494369941     15.21294569854388
  C   19.68811287688755      1.29083759506699     16.04252645311710
  C   19.56871596585181      2.67502643834120     16.22773872473539
  C   18.52399865539602      3.35161737625425     15.60550934445949
  C   15.79014168016961      1.87493497550808     11.69257324243921
  C   16.94625817899870      2.78685494255928     11.37281211644580
  C   17.69588075665334      2.72802091380531     10.19708742611357
  C   18.70462343778880      3.67757493087387      9.98455949940793
  C   18.93384921665312      4.65678417692517     10.95851733569209
  C   18.15733788336122      4.65808268769488     12.11769272424881
  C   14.16882245170491      4.91873361391536     15.53172830018505
  C   13.73957086901123      5.16803625200173     14.11237372384410
  C   12.64372449696880      5.95760926916502     13.76139623572807
  C   12.38805450719172      6.21017820033882     12.40851081024601
  C   13.24889404395953      5.66999674711168     11.44580763340626
  C   14.32128373530836      4.88271279062827     11.86325226220972
  C   15.56073787982825      3.44096816399358     16.89036603156909
  H   14.32045376810858      0.09810697646881     13.15236677632060
  H   13.60998090135005      1.72205449409619     13.03558569906858
  H   15.00942689876229      0.77975253715851     15.61086780052242
  H   13.31243604816759      0.47137028160449     15.28264871367702
  H   13.28835395473821      2.48955114299663     16.54047641782006
  H   12.95416240367378      2.93573811959145     14.85865138849258
  H   16.35057615170284     -0.14694313757668     14.03736354842747
  H   17.37250547716473      0.44478631768633     12.73378469203199
  H   18.84276003314459     -0.42789178533509     15.02560503324762
  H   20.48701005160471      0.73152492845244     16.52394232144540
  H   20.27117735288810      3.22806689581485     16.84564687916214
  H   18.37381521052495      4.42295873713080     15.70588539110734
  H   14.84497955779257      2.32478351161176     11.36142878137870
  H   15.88213570693136      0.90251442446024     11.18850917157563
  H   17.48808625571728      1.95453624332685      9.46115923051583
  H   19.30009436822326      3.64988343941369      9.07488193466194
  H   19.70400488716571      5.41280774762125     10.83037747626826
  H   18.27769177840650      5.38883863433638     12.91224833720078
  H   14.91661565104876      5.66727671170529     15.82186522998149
  H   13.32400872205740      4.96017152250719     16.23314617635251
  H   12.01107463525744      6.37643637868218     14.54036976577355
  H   11.54166188564483      6.82605495404901     12.11350053142496
  H   13.10344441906310      5.85841870705233     10.38548537774603
  H   15.03124913830401      4.48012600215051     11.14871897071508
  H   15.99429853082144      2.44035252500471     16.96567659486792
  H   14.86184664021007      3.60025719897614     17.72281159497215
  H   16.35189176022595      4.19316905524852     16.92547255930203
