40
Coordinates from ORCA-job CEHXOF_1_2_tpss_d4_lanl2dz_631gpol_Co2.opt
  Co  7.31318280253088      5.76263449618339     10.65942706299361
  Cl  7.25800210030535      8.14956695052292     10.66397433576511
  N   5.79670389180513      6.95862092191636      7.16114697973978
  N   7.08347339488040      6.80242623523896      6.70457575135946
  H   7.32317524483824      7.15573174981377      5.78396861923925
  N   7.11718654492089      5.88543186753350      8.69000154027282
  N   9.17673652088678      5.82957140275706      7.42298519651191
  H   9.58618904040129      6.11358149854063      6.53754527019285
  N   10.78612459553854      4.80743453048923      8.95389690175709
  H   11.69107785177890      5.00013477663512      8.53081478366861
  N   11.55611896603219      5.93455923950707     10.92323581441846
  H   12.55758107845483      5.93241706767429     10.75760430451474
  N   11.08376317523712      6.40093537207681     12.12347547492427
  N   9.38879970515844      5.61813856218980     10.78888093645268
  C   5.86901971138064      6.38720377646856      8.34636881728046
  C   7.86770053815188      6.16815711300881      7.61342409657520
  C   9.69564683731019      4.59429875229167      8.02243246105480
  H   8.87402841483613      4.10829218391361      8.55537809679156
  H   10.06498047155987      3.92431500613744      7.23956215307754
  C   10.55468887955363      5.45222526667696     10.14078074196362
  C   9.78891441582112      6.18911468092613     11.99269876729699
  N   8.82183843962638      6.96812813645236     14.15169144385841
  N   7.53660717414492      6.80447834465917     14.61012200635234
  H   7.29548631184914      7.15961587926022     15.52967314336326
  N   7.50659343652450      5.88340268581823     12.62700134653037
  N   5.44805680125431      5.82132383000814     13.89675744664643
  H   5.03960173146966      6.10322338415113     14.78329882332170
  N   3.82896082889682      4.81550301725317     12.36369140628920
  H   2.92882409303816      5.02072182081361     12.79119146874769
  N   3.06256587108619      5.94029195459182     10.39061640738772
  H   2.06140178091978      5.94573885163651     10.55763736192856
  N   3.53685152006783      6.40052480400719      9.18905244683848
  N   5.22859896519254      5.61177974721532     10.52504686325405
  C   8.75156207495879      6.39341817662008     12.96820956629551
  C   6.75444618080521      6.16402600953308     13.70339864878909
  C   4.92152811402836      4.59258182758035     13.28925354963273
  H   5.73919667774739      4.10709269882930     12.74998559883578
  H   4.55334827474848      3.91952492055969     14.07001690860474
  C   4.06268009602612      5.45563568588970     11.17369843754163
  C   4.83085744623251      6.18229677461856      9.32077901993079
