46
Coordinates from ORCA-job CEHXOF-CH3OH_1_4_tpss_d4_lanl2dz_631gpol_Co2.opt
  Co  7.32461152164869      5.84775030800212     10.68020293408021
  Cl  7.23584880334433      8.18537225326490     10.68378844318615
  O   7.44089725309854      3.68629103251913     10.54534837653674
  N   5.70122350467847      6.89317253650722      7.02396664988277
  N   6.98411892610647      6.74248170028875      6.54811385904744
  H   7.21203436633166      7.11524722740071      5.63223969268460
  N   7.05550445347331      5.85752153285045      8.54964434113958
  N   9.11427288863347      5.86281460903058      7.29553589465563
  H   9.49383837167964      6.03057108009161      6.36882218734820
  N   10.86184803508284      5.33984930861200      8.94774805488539
  H   11.69236531271002      5.67361278137841      8.46659860576306
  N   11.60012155614139      6.42005419294914     10.97144023580968
  H   12.57860400222300      6.59220285185978     10.76459949820214
  N   11.11835939975735      6.74383059584287     12.21767766618062
  N   9.49696702874573      5.80898018289824     10.89780066494171
  C   5.80193616359205      6.34513072845557      8.22297206348690
  C   7.78644505904958      6.13942759652401      7.46680733056243
  C   9.78215042201691      4.84220091229652      8.10968772159100
  H   9.03580318012234      4.37283201129079      8.75761034463387
  H   10.21447156085674      4.08671227036771      7.44456212783787
  C   10.63327255447221      5.86113390180555     10.19314341920053
  C   9.85779827002182      6.35651746142649     12.11926095587517
  N   8.89706493526721      7.08897757387424     14.28864364645656
  N   7.61696082270494      6.92670509824899     14.76709624620567
  H   7.36897156664060      7.35514369272174     15.65298228940364
  N   7.58720158314811      5.91360270618556     12.82405618492046
  N   5.51685726861526      5.95249867993776     14.06662743667256
  H   5.13038133109118      6.16650860070667     14.98085811045671
  N   3.77527432769548      5.32221378728874     12.44158640696450
  H   2.94232908290236      5.67062097201353     12.90835049286431
  N   3.04389535810115      6.37198508385239     10.40082995362738
  H   2.07334910693157      6.57708769281268     10.61519879434209
  N   3.52197401368380      6.66380906833079      9.14579929633523
  N   5.13318008424767      5.70744938368766     10.46596255723190
  C   8.82320382848133      6.46493738223791     13.12595072778145
  C   6.84043627113290      6.24624865560314     13.88228235775814
  C   4.86070096165356      4.88788366578490     13.30577046500264
  H   5.61486930816144      4.40603047083946     12.67917921597993
  H   4.44268850901372      4.15495175768429     14.00448258139081
  C   4.00473979234858      5.80702729127595     11.17948378717945
  C   4.77393334772757      6.25015924226220      9.23832219730346
  C   8.01725993974479      2.83906224865868     11.57100982560195
  H   8.94762790034169      3.33025032974415     11.86048448140513
  H   7.35530743260930      2.76162083757081     12.44269078062097
  H   8.22367500587106      1.84385825637598     11.16039951360378
  H   6.59401558809791      3.31510044663910     10.22615158335924
