41
Coordinates from ORCA-job CEHXOF-oxo_1_2_tpss_d4_lanl2dz_631gpol_Co2.opt
  Co  7.30855489974949      5.64547342189161     10.65758023960904
  Cl  7.30855508944895      7.92001039077766     10.65758105706351
  O   7.30855525100854      3.98258643992491     10.65758000596445
  N   5.72265209244327      6.78869116411289      7.01169495399209
  N   6.99839644965677      6.57672794248112      6.54220670528106
  H   7.22164529422470      6.85112332146197      5.59112526594469
  N   7.05664377230698      5.82187560377222      8.58941271802578
  N   9.10013085869783      5.66346503400532      7.30491336591338
  H   9.47525701635776      5.81128840747310      6.37298134217770
  N   10.83919763809765      5.10187368173546      8.93782230811498
  H   11.69991403784533      5.35534540522190      8.46197343748898
  N   11.61019075149900      6.14733031724721     10.96687902537712
  H   12.60802723234008      6.21264969033109     10.79385791641557
  N   11.12608057637387      6.50457444331123     12.20249981102520
  N   9.46913361180718      5.72144236310322     10.83875272658093
  C   5.81149333579798      6.31446802970848      8.24041013960325
  C   7.79206356437848      6.00212266414212      7.48547439825574
  C   9.74188236056888      4.62316741424225      8.11794999118732
  H   8.98962537386519      4.17587819910566      8.77520180085036
  H   10.14370154470117      3.85254737954570      7.45220749375253
  C   10.62366330276910      5.66031893370806     10.16512127851647
  C   9.84168763256948      6.22225011709339     12.07225375946489
  N   8.89445378589051      6.78869546941057     14.30346982716992
  N   7.61870911578353      6.57673341075102     14.77295759209930
  H   7.39545840532093      6.85113467012685     15.72403648387665
  N   7.56046273921365      5.82187725351018     12.72575265657759
  N   5.51697406884148      5.66347231754477     14.01025093042193
  H   5.14185369775307      5.81128700228906     14.94218643399620
  N   3.77790848111427      5.10187245167825     12.37734407624931
  H   2.91719745569532      5.35535670406213     12.85319646722652
  N   3.00691639734987      6.14732882977961     10.34828715885351
  H   2.00907984434114      6.21264793809940     10.52130881387664
  N   3.49102631626276      6.50457297335632      9.11266665359748
  N   5.14797405686852      5.72144290096366     10.47641441867981
  C   8.80561299391769      6.31446982252697     13.07475549920271
  C   6.82504246296967      6.00212731247753     13.82969010548227
  C   4.87522507717372      4.62317033233752     13.19721714936776
  H   5.62748230495372      4.17588080874223     12.53996589194042
  H   4.47340755071308      3.85255128366681     13.86296182034864
  C   3.99344411785433      5.66031891294865     11.15004550955735
  C   4.77541944147457      6.22224924133152      9.24291277087031
