42
Coordinates from ORCA-job CEHXOF-OH_1_1_tpss_d4_lanl2dz_631gpol_Co2.opt
  Co  7.31735540370899      5.81202938722808     10.64073095797445
  Cl  7.31471824786636      8.14526625488300     10.66694114267956
  O   7.28728551172451      3.94717753563886     10.60202565182759
  N   5.88059674510044      7.04803079337387      7.07335804360292
  N   7.10034432920051      6.63875419008926      6.58155509477697
  H   7.31945009364375      6.81421798839356      5.60671844895767
  N   7.12924691058031      5.98987575055245      8.66583571888311
  N   9.03147956899957      5.38919374241255      7.30469582051091
  H   9.37487299708068      5.37183124549583      6.35001416320975
  N   10.67406936606813      4.91172649057779      9.02820561431806
  H   11.53942134626973      5.08515366797461      8.52234673921606
  N   11.44985822193115      6.28454066634491     10.83975408246861
  H   12.44758029200199      6.29757491782750     10.65493202668533
  N   10.98974939712768      6.80406901621784     12.02801829722391
  N   9.30585923934304      5.87279573942709     10.79546344391429
  C   5.94951325386123      6.63271694321373      8.32026111458711
  C   7.83044669886660      5.98576261056512      7.52416265960781
  C   9.55439566957784      4.40352312897412      8.24690867523887
  H   8.75444557051670      4.10046868037660      8.94268417354324
  H   9.91004189074246      3.53191754765068      7.69021682602515
  C   10.45697777478742      5.68715076583679     10.12707280922288
  C   9.70520267956381      6.52829657925185     11.95462059940587
  N   8.73953838338089      7.00317402113556     14.21499808709498
  N   7.51826671247046      6.58389129182035     14.69754513415201
  H   7.29177243385595      6.75636410897654     15.67133046311639
  N   7.51257028603757      5.93062804923647     12.61418373754876
  N   5.61138433755651      5.30604100262785     13.96216478079782
  H   5.22822795879933      5.32354150467860     14.90134955039908
  N   3.94273494345207      4.91709257876233     12.23617751084289
  H   3.07705007434182      5.08594354730975     12.74197771572926
  N   3.17431482290670      6.28647330386887     10.42312372876728
  H   2.17383121380420      6.27454856817556     10.59148093066756
  N   3.64123948734411      6.81970379399508      9.24485473665761
  N   5.32330521432746      5.90147766531588     10.48927003912689
  C   8.68433130023769      6.58796988986854     12.96846074799927
  C   6.79915647405557      5.92304762494705     13.75092294758939
  C   5.05300341357344      4.36535867549144     12.99069184897176
  H   5.83490313636999      4.06937283287438     12.27254741260521
  H   4.68833019003300      3.48502707620230     13.52770710968484
  C   4.16792493631179      5.69530470198911     11.14000790891412
  C   4.92837366699482      6.55722176036166      9.33109793768952
  H   7.99607980558342      3.69074436005638     11.23206556776479
