40
Coordinates from ORCA-job CEHXOF_1_4_tpss_d4_lanl2dz_631gpol_Co2.opt
  Co  7.30855230414319      5.86445166495678     10.65758108883904
  Cl  7.30855633183162      8.17285534305068     10.65758085142063
  N   5.69727280216317      6.71357137922735      7.00070599681876
  N   6.98171367603815      6.58348094338877      6.52660095123911
  H   7.19642501427071      6.92499436987363      5.59514884978686
  N   7.07883890641570      5.74670744248013      8.54929812279708
  N   9.12808867643284      5.75750368694809      7.27096746020620
  H   9.50506499915456      5.96620716726485      6.35123471609975
  N   10.85408085925032      5.13527558382554      8.90770961920054
  H   11.71979028176997      5.43410892790281      8.46810915739371
  N   11.59962958709473      6.07013726508355     10.98617964915851
  H   12.59400794851533      6.16796495820183     10.80729642888890
  N   11.11725314487570      6.36927723781545     12.23594595667190
  N   9.45925013892964      5.60553314450358     10.84769416114823
  C   5.81003261620425      6.19041126792744      8.20807332974695
  C   7.80047046561755      6.01976311044027      7.45328102305578
  C   9.79259065798622      4.69014914491369      8.02672220820699
  H   9.03877934440294      4.17947815118698      8.63107747398613
  H   10.23414808268816      3.97788542176988      7.32193914903492
  C   10.61571950634591      5.61057596725870     10.16719808615873
  C   9.83816094996990      6.07033608653815     12.10155154135814
  N   8.91983166307757      6.71357380290860     14.31445887764147
  N   7.63538995625073      6.58348685220674     14.78856223463652
  H   7.42067675099540      6.92500241538641     15.72001326134145
  N   7.53826574218719      5.74671017992539     12.76586646391333
  N   5.48901306011239      5.75751484147036     14.04419366521334
  H   5.11204281079588      5.96620810693551     14.96393141707692
  N   3.76302270760426      5.13527411105429     12.40745495545909
  H   2.89731404841964      5.43410874685665     12.84705624025627
  N   3.01747577844602      6.07014172717378     10.32898646392448
  H   2.02309776828677      6.16797151259761     10.50787050957331
  N   3.49985275452389      6.36928162106284      9.07922049057605
  N   5.15785424893696      5.60553307280429     10.46747169785984
  C   8.80707228354215      6.19041224143500     13.10709203695417
  C   6.81663330004546      6.01976899663135     13.86188203718064
  C   4.82451465121390      4.69015385179961     13.28844320039283
  H   5.57832728697230      4.17948309990057     12.68408939823511
  H   4.38295970427497      3.97789141540802     13.99322907792284
  C   4.00138475876993      5.61057729693662     11.14796753672245
  C   4.77894443144366      6.07033784294793      9.21361461390241
