19
aromatic rings
Co    2.171400   10.252400    3.292100
O    -2.130500   10.306900    5.246700
N     3.772600   10.513600    2.216100
N     2.281600    8.519000    2.565600
N     0.490600    9.647500    4.184600
N     1.870900   12.080600    3.243200
N     3.148200    9.736200    4.861300
C     4.504700   11.637400    2.135600
C     5.689900   11.683000    1.391500
C     6.120000   10.534700    0.718300
C     5.354500    9.365400    0.803000
C     4.183300    9.379800    1.566800
C     3.288900    8.235500    1.780600
C     1.225900    7.590500    2.991900
C     0.675700    8.152900    4.301300
C    -0.685600   10.010400    3.311300
C    -2.026000    9.662300    3.984000
C    -1.093800    9.865000    6.125700
C     0.281400   10.239700    5.556500
