71
Coordinates from ORCA-job AJAVEO-oxo_1_2_tpss_d4_lanl2dz_631gpol_Co2.opt
  Br  9.72022384375096    -13.09772726698538     -7.14870253656702
  Br  7.46887030389913     -4.77035407957741     -0.66462657568397
  Co  6.76208737150880     -8.75476222286698     -4.74461484032978
  N   6.72890492341632    -10.46130608027913     -1.42893350282251
  N   7.18745236072339    -10.21358611771405     -2.47327923085904
  N   3.28727403665412    -10.07082287588924     -3.03746981726927
  N   5.89039498959007     -7.68967074263057     -6.15175913850096
  N   5.03016337456520     -9.75579339615676     -4.42955106759495
  N   6.12710427438062     -7.77309489153823     -3.19568570215605
  N   5.89050353387114     -7.16217526269309     -8.33706639333307
  N   7.39514506001961     -9.77449714937263     -6.26871608030739
  N   7.70510972915620     -9.99908500028066     -3.56233956592987
  O   8.16336695639950     -7.72028271508254     -4.87535463166220
  C   5.15270722488269    -12.18259310122794     -4.22089152993679
  H   6.19190169911306    -12.13966299061880     -4.56457328324736
  H   4.72853177180282    -13.15030798028975     -4.51584530443455
  H   5.14751811816288    -12.10735946371355     -3.12715539094764
  C   4.38577175345157     -9.31425082198410     -3.37859843199273
  C   7.45599971437941     -9.89251691876359     -8.67471524738785
  H   7.14160995562523     -9.48359934918660     -9.62820501251516
  C   6.39287475338245     -6.18336332395447     -1.45349023973099
  C   6.85198637890686     -6.80269297861263     -2.62057778589778
  H   7.79058371181598     -6.58502016044782     -3.12862113514874
  C   4.46580303637796     -7.61817523738321     -1.45917106874665
  H   3.54480923799220     -7.99042968437690     -1.02229767474827
  C   8.60759562525515    -11.51764885282911     -7.33966064385379
  C   5.19362593478279     -6.58595938799830     -0.85802090536780
  H   4.84349819859861     -6.12107453731315      0.05935397687791
  C   4.77495728191471     -6.33112491731433     -7.75031584576327
  C   5.27337759456416     -6.32918620164565     -6.25129879732145
  C   3.44055286343545     -7.07620546329986     -7.92882849561918
  H   3.25194940581351     -7.24635202105446     -8.99396839130986
  H   2.61488238874054     -6.48017030019071     -7.52314079039815
  H   3.45611438969445     -8.04814524861670     -7.41914638154750
  C   7.05134588274852     -9.27250340584767     -7.48971136654003
  C   2.91510314983033    -10.87572001278799     -4.24959046095699
  C   4.36444696971973    -11.02542900882675     -4.86830680854702
  C   1.98203333694220    -10.03473120218324     -5.14322880660746
  H   1.03418688597929     -9.83291389377570     -4.62576082917496
  H   1.73099590375156    -10.58097672444040     -6.05897755558143
  H   2.44829271720425     -9.08126123651223     -5.42851812154699
  C   8.17394659602915    -10.86068861828488     -6.18084922675542
  H   8.43635507017500    -11.17424602527328     -5.17381203456506
  C   8.24731264509868    -11.04374032591509     -8.60274019680184
  H   8.57608555903298    -11.55105455390586     -9.50533242518877
  C   4.73180250984406     -4.95865177099103     -8.42234541133773
  H   5.71192839363026     -4.47075539574513     -8.41364313076878
  H   4.00914842153456     -4.30937403700028     -7.91196690389321
  H   4.40036693214903     -5.06491616361584     -9.46358231445594
  C   6.39671937679961     -5.29987917184733     -6.01249152377912
  H   6.85139311969258     -5.48310616840294     -5.03425057886024
  H   5.99092821317484     -4.28051075109936     -6.02803662862134
  H   7.18366120659577     -5.38539141966583     -6.77026099229619
  C   4.36042655385599    -11.16786314207915     -6.39262972500348
  H   4.02382247460743    -10.25040848468134     -6.88767296570400
  H   3.69799726944336    -11.99146340705095     -6.69039010837473
  H   5.36641819264197    -11.40990549974850     -6.75147558887359
  C   6.24524827738553     -8.06479456641427     -7.35486563714497
  C   4.13860819099977     -6.13492792070689     -5.24314253276393
  H   3.46593596638766     -6.99957166702400     -5.22407726250450
  H   3.55442674331755     -5.24364678029790     -5.50797608574182
  H   4.54388945507553     -5.97695904848133     -4.23867369210646
  C   2.24000662862932    -12.18266627830681     -3.83491543683705
  H   2.85027293268661    -12.73983438125149     -3.11807114135737
  H   2.05732353668272    -12.80970188081121     -4.71709032410401
  H   1.27334810448300    -11.96462292409071     -3.36482120261572
  C   4.95893185615638     -8.19592662581541     -2.63254707889491
  O   2.24676835462460     -9.47312849756626     -2.28899355719976
  O   5.61545781970174     -7.72571196352853     -9.62194416916398
  H   1.80036350892699     -8.83570430046455     -2.89776762764701
  H   6.12134944783348     -7.13871600367086    -10.22507308562999
