71
Coordinates from ORCA-job AJAVEO-oxo_1_6_tpss_d4_lanl2dz_631gpol_Co2.opt
  Br  9.74802043103186    -13.14177693119701     -7.44493497598962
  Br  7.17648809742111     -4.70470533633861     -0.29472300731995
  Co  6.96485378243981     -8.67245196006325     -4.67931926716643
  N   6.82907821185376    -10.69338541594671     -1.41287209149876
  N   7.35308091046030    -10.33957819138993     -2.39960139821843
  N   3.27906878398563    -10.05847130091837     -2.94822377619637
  N   5.91648644469829     -7.67138150598929     -6.24426462006610
  N   5.07666494881789     -9.78281974982228     -4.28647162612417
  N   6.07916968527353     -7.67980343664151     -2.99190741483212
  N   5.90538132968086     -7.18865192029484     -8.44293756832015
  N   7.47957632086573     -9.81170536123272     -6.40805037637098
  N   7.91409538575564     -9.95831460175839     -3.41102275301024
  O   8.36460088528794     -7.63764959992377     -4.73530188749324
  C   5.10206556574169    -12.21432515662278     -4.14236881328858
  H   6.15020431113071    -12.19125107508136     -4.46491674469182
  H   4.66127978947045    -13.16053142499448     -4.47989144127037
  H   5.07183762718898    -12.17995935368797     -3.04705461719182
  C   4.41337551903098     -9.32771294940200     -3.25728563422292
  C   7.42576097586895     -9.89848044941362     -8.81175609908878
  H   7.07079784805173     -9.48094010391701     -9.74674390753410
  C   6.22038661509214     -6.16206683109296     -1.15722346002615
  C   6.71618940624045     -6.68257979651710     -2.35906686803293
  H   7.63084771854153     -6.32525553774250     -2.82486395346851
  C   4.41482943287752     -7.74447806903468     -1.25015163952460
  H   3.52209129911559     -8.20234663369987     -0.83688098723460
  C   8.63819374846867    -11.54935388407132     -7.55800433026146
  C   5.06178786638470     -6.69575541079416     -0.58770410519333
  H   4.67656482018473     -6.31364355088411      0.35363015606644
  C   4.78965974243832     -6.34432543115786     -7.88224518692539
  C   5.27553459009934     -6.32797668075527     -6.38389317842102
  C   3.45311629243119     -7.08564973873575     -8.06516952658393
  H   3.27450118850710     -7.26983874446183     -9.12974594762231
  H   2.62637933317921     -6.48023601866067     -7.67560045029463
  H   3.45847185800270     -8.05072793532282     -7.54176949609364
  C   7.07273501485958     -9.29526008963561     -7.59854748773827
  C   2.90877835802915    -10.83731969994131     -4.17487334591608
  C   4.36255334869226    -11.01197177622424     -4.76564637056082
  C   2.01207650562119     -9.96563211334082     -5.07757718352682
  H   1.06288785203350     -9.73981081866061     -4.57288813532292
  H   1.75984311607753    -10.50233595949232     -5.99876839768445
  H   2.50820827423901     -9.02492216475251     -5.35442867605342
  C   8.25474650775234    -10.90258834442496     -6.37547431163515
  H   8.57022762013260    -11.24421013067526     -5.39343787793728
  C   8.22062169592383    -11.05033150335247     -8.79315900015945
  H   8.50698763883048    -11.54156085954366     -9.71894343268775
  C   4.75787365743133     -4.98241600484826     -8.57718746339300
  H   5.73888724669205     -4.49593898398236     -8.56315167899498
  H   4.03119101639491     -4.32429271174689     -8.08406310002778
  H   4.43886273829989     -5.10159203923367     -9.62104200571210
  C   6.38591885817499     -5.28471205783468     -6.13600606420032
  H   6.82377702288894     -5.45862737533524     -5.14701922204378
  H   5.97689477152409     -4.26699458738554     -6.16623270523437
  H   7.18669606155683     -5.37158877555496     -6.87953412083376
  C   4.38490355832930    -11.11729198718301     -6.29330853252699
  H   4.07663492329772    -10.18012930597106     -6.76865465913613
  H   3.71236413533940    -11.91962539190147     -6.62530938725656
  H   5.39339862131091    -11.36708478253419     -6.63843556811077
  C   6.26266511013099     -8.07591646353152     -7.43894240073938
  C   4.14142710331148     -6.14402561303754     -5.37313040843972
  H   3.42867455564169     -6.97511057100009     -5.40882013658879
  H   3.60024334114702     -5.21089997483077     -5.57915855579975
  H   4.55358217491855     -6.07785862430609     -4.36088549681409
  C   2.18926089252231    -12.13077343651713     -3.79126101630649
  H   2.76745188238928    -12.71486344698209     -3.06886643555095
  H   2.00984128981867    -12.74172162479562     -4.68550880272491
  H   1.21834621878944    -11.89344994120449     -3.33950375386467
  C   4.94868703688204     -8.21275426907137     -2.45782132290473
  O   2.22805328043644     -9.44348912010308     -2.22489683214436
  O   5.64109439773421     -7.74978130381940     -9.73076984050653
  H   1.83101453973794     -8.77310424063718     -2.83208987906890
  H   6.15204886748853     -7.16228381904092    -10.32911939834229
