70
Coordinates from ORCA-job AJAVEO_1_4_tpss_d4_lanl2dz_631gpol_Co2.opt
  Br  10.04963122703204    -12.99510449152795     -7.46746938292120
  Br  7.52725278551640     -4.89571156691854     -0.53938828576731
  Co  6.53698949132316     -8.96822777248206     -4.83616436599002
  N   6.93711376150333    -10.48377702744119     -1.44647988794801
  N   7.31208029290295    -10.23779694482922     -2.52376244234422
  N   3.17946357491786    -10.11593536857068     -2.74177181382081
  N   6.10499654989216     -7.61024959142819     -6.33104756967022
  N   4.74125248849101     -9.75886908373824     -4.31848842899796
  N   5.95785446183282     -7.75263124064528     -3.13805213481019
  N   6.16070424249421     -7.08008890830501     -8.51939640207759
  N   7.48644893333963     -9.85614453694880     -6.52040582217024
  N   7.70117746506558     -9.99460117559264     -3.65954365383106
  C   4.88472899222264    -12.18191739346777     -4.22179732795574
  H   5.87622649274541    -12.11149157269500     -4.68489719371093
  H   4.43695450124490    -13.14325931665416     -4.50232479001341
  H   5.01193658611206    -12.14889588724044     -3.13318989160938
  C   4.23670592367133     -9.34727997261136     -3.18087168766003
  C   8.02958795150657     -9.56193202470306     -8.85006126445752
  H   7.91060477441946     -8.99917362041255     -9.76851475349490
  C   6.40345736388566     -6.29603936637483     -1.29420641860946
  C   6.70574438863778     -6.79680827612702     -2.56497837153499
  H   7.56301804909656     -6.43879115007512     -3.12859018962506
  C   4.54786757213753     -7.80917953969164     -1.16966460953118
  H   3.70830085224524     -8.25766666124805     -0.64814926136530
  C   8.94849737804158    -11.39779242844394     -7.60139839726644
  C   5.31453395268373     -6.80255215671910     -0.57827337720373
  H   5.08095981089826     -6.43509483004296      0.41691059975320
  C   4.94478029836175     -6.34711392799729     -8.00636538284062
  C   5.33782548342493     -6.33211982266944     -6.48121168302204
  C   3.69390176728218     -7.19856966384750     -8.28773466392436
  H   3.59250217720630     -7.36438256690283     -9.36546325276885
  H   2.79593288410002     -6.68037382155285     -7.93152346462090
  H   3.75737710334315     -8.17508082672909     -7.79035891418446
  C   7.37008018988592     -9.15992164933231     -7.68359540815595
  C   2.65816153673895    -10.88928405645072     -3.92042706129332
  C   4.01765235910594    -11.00584810078320     -4.71804179977300
  C   1.60911858318548    -10.03630480028146     -4.66184864657978
  H   0.73244029718314     -9.86570540621082     -4.02233218544834
  H   1.25431856083679    -10.56271022000219     -5.55475039794691
  H   2.02094581158619     -9.06665921298003     -4.97523446439196
  C   8.26545429141457    -10.94493162929014     -6.46440255381489
  H   8.34372543499527    -11.42436319276521     -5.49170646007657
  C   8.83400172585793    -10.70730204675284     -8.80992412948374
  H   9.36011429926959    -11.04685529903350     -9.69782997898002
  C   4.83376717990549     -4.97484723630513     -8.67238357436799
  H   5.76683503299489     -4.40685454596061     -8.59315980622244
  H   4.02741003436090     -4.39443677921074     -8.20647138628768
  H   4.58256216533125     -5.09280969301106     -9.73476730259890
  C   6.31116093412227     -5.18584674476562     -6.13780960869935
  H   6.67620110385671     -5.32303925030761     -5.11361109136288
  H   5.80476332380003     -4.21396922317654     -6.19118645017358
  H   7.17407848078809     -5.17170521721218     -6.81530181381103
  C   3.86458081558601    -11.06041540596769     -6.23978190199056
  H   3.35197801898513    -10.17471580001561     -6.63119214175979
  H   3.30398042980657    -11.95454034482502     -6.54235686054289
  H   4.85936978963780    -11.11264847025192     -6.70024646574451
  C   6.52639811243971     -7.96347743522207     -7.52375574978494
  C   4.12717233295873     -6.30118740114607     -5.54354046350385
  H   3.55728696945704     -7.23452611726335     -5.60066100923026
  H   3.46893045532675     -5.46295782515246     -5.80815915959899
  H   4.45826528980473     -6.15879635532300     -4.50986319577171
  C   2.04664683303944    -12.21026578578834     -3.45190772376786
  H   2.75334671120119    -12.78894326181446     -2.84978073592956
  H   1.73192987239603    -12.81134626266454     -4.31469909438817
  H   1.16109392433991    -12.00677685436439     -2.83730705349025
  C   4.89655184047124     -8.26037933409730     -2.45015982194251
  O   2.23620685313889     -9.56127665461480     -1.84660873012467
  O   6.02847298394444     -7.63003249573817     -9.83034912393606
  H   1.72928040441079     -8.88820144063953     -2.36258656093635
  H   6.48080744025750     -6.96276591664466    -10.39112560209322
