70
Coordinates from ORCA-job AJAVEO_1_2_tpss_d4_lanl2dz_631gpol_Co2.opt
  Br  9.64488394287968    -13.15862121795872     -7.20589398513548
  Br  7.41838446474088     -4.77804756050353     -0.71612487648816
  Co  6.69884256096082     -8.80603047308689     -4.77317312468807
  N   6.97906308902079    -10.44345009735206     -1.44677269126018
  N   7.36190820334478    -10.14209897893928     -2.50504728024748
  N   3.23405779732828    -10.11861025186869     -2.98250284018061
  N   6.06358233713994     -7.60917018863980     -6.16859384082474
  N   4.90938789122312     -9.78521889690922     -4.46006458274163
  N   6.07751653619827     -7.80636787876020     -3.23792760915558
  N   6.00586764790239     -7.07850213316002     -8.36716323153214
  N   7.44920723981579     -9.74065363395190     -6.30308950647645
  N   7.79725689984437     -9.86456336703658     -3.62004969720084
  C   5.07975134141970    -12.19599844217700     -4.22478518296799
  H   6.10430732092532    -12.13600110914592     -4.60900115587834
  H   4.66747560420249    -13.17726946207785     -4.49046164489927
  H   5.11532976284268    -12.10612441456757     -3.13266770597021
  C   4.31123999886168     -9.34671922683047     -3.38450022888122
  C   7.56756264485903     -9.82272682399254     -8.72006211019221
  H   7.29320388835984     -9.38385484560949     -9.67256034038379
  C   6.34209066826699     -6.20122416844851     -1.48791432608371
  C   6.78862697105006     -6.82165315657050     -2.65838772614172
  H   7.72821862276558     -6.55220943849201     -3.12997745139488
  C   4.43205718713172     -7.65153177354134     -1.47645242046700
  H   3.51633204070102     -8.03033425779181     -1.03386240067486
  C   8.60806279500887    -11.52257890683975     -7.38859235437794
  C   5.15303079853897     -6.61434720967088     -0.87932130737942
  H   4.80773907973421     -6.15243699353004      0.04109889538347
  C   4.86075114590107     -6.30321396944132     -7.76264779268267
  C   5.37740694729763     -6.27775170462817     -6.27263861638353
  C   3.55797493491499     -7.10956766694104     -7.91482869848726
  H   3.36686874786998     -7.30432075475149     -8.97521662361851
  H   2.71127396920018     -6.54303348654804     -7.51000333032037
  H   3.61986868867487     -8.07189724149930     -7.38983162464201
  C   7.15550167530293     -9.20722124434100     -7.53308689716513
  C   2.81867666038858    -10.92950544396583     -4.18100953210714
  C   4.24174142864117    -11.06301678578251     -4.85576460825507
  C   1.84528568906615    -10.10287591551304     -5.04436265702461
  H   0.91387340619512     -9.90664410262317     -4.49574546666070
  H   1.56872986489213    -10.65943341867080     -5.94657137304051
  H   2.29093211747533     -9.14695421635871     -5.35538918020645
  C   8.17257032567378    -10.87451065333771     -6.23005548996557
  H   8.39660418399137    -11.22139372332005     -5.22470198002944
  C   8.30637623530482    -11.00676746776469     -8.65343271789004
  H   8.63703305869791    -11.51057298309823     -9.55713548577632
  C   4.74008415839836     -4.93600884060474     -8.43586326765616
  H   5.69723900982525     -4.40394205098736     -8.44914017370207
  H   3.99820919190513     -4.31768635957022     -7.91445923747387
  H   4.39488152128157     -5.06140295740429     -9.47040717706390
  C   6.45330624227610     -5.19572552217504     -6.04804503654865
  H   6.89773209067983     -5.32935541726177     -5.05523465960251
  H   6.01089505427248     -4.19264493812224     -6.08947966104839
  H   7.24928992653344     -5.26350868703314     -6.79924436045943
  C   4.20725483918537    -11.21362429403226     -6.37846526340912
  H   3.76439727586357    -10.33979474487827     -6.86886880387118
  H   3.63038566168987    -12.10419131741525     -6.66116627315378
  H   5.22767720734142    -11.34242012314657     -6.75718714166876
  C   6.38591505402777     -7.98443918385424     -7.38772591375808
  C   4.24146606252189     -6.12373179236823     -5.25723287510893
  H   3.63029481303581     -7.03082733938251     -5.20133205881024
  H   3.59750499311597     -5.28303316352488     -5.54749798502510
  H   4.64026936873098     -5.90341772860485     -4.26189193966171
  C   2.17280131090116    -12.23890846685820     -3.72958763888377
  H   2.82409578352485    -12.78970887143468     -3.04449574198349
  H   1.94609571176667    -12.87097727491750     -4.59781837184544
  H   1.23180717162072    -12.02454245035891     -3.20812885785068
  C   4.91398501103009     -8.22933104449653     -2.65620045915609
  O   2.20597605911231     -9.50616603483320     -2.22072561692550
  O   5.71191804998230     -7.66590726228105     -9.64231512997728
  H   1.74382127666923     -8.88333030712447     -2.83301324820756
  H   6.18774074015208     -7.07164814129127    -10.26170030665208
