47
Coordinates from ORCA-job BOWNIL-oxo_1_1_tpss_d4_lanl2dz_631gpol_Fe2.opt
  Fe  7.27828707807864      5.26960766280096      3.21662795218240
  S   7.08947509284348      9.59677432266576      1.62623029451415
  C   9.81890060145378      4.46064358322886      2.10407360070700
  H   9.23946744054023      3.54495454507788      2.06063183628756
  C   11.11029381321665      4.54418995372441      1.60653820298748
  H   11.56724544741772      3.67736818876853      1.13827390413936
  C   11.79553852700469      5.76538738487838      1.72886589311433
  H   12.80244502437523      5.88213602077240      1.33518271952304
  C   11.18734450787008      6.81513624330004      2.40241850817633
  H   11.71103925901895      7.75325828602028      2.57332244123102
  C   9.88206404839578      6.64198923494864      2.91160611395162
  C   8.27978704045761      7.67560213108760      4.56490493035449
  C   8.13125523219390      8.80079198833528      5.40551666655984
  H   8.87781927721966      9.59064944679626      5.38041928375479
  C   7.02254040187997      8.88455406270829      6.23451466009142
  H   6.88919072189796      9.74803180270920      6.88097951234244
  C   6.05877006002550      7.86764610525822      6.19883752739710
  H   5.15042981854157      7.94321296929690      6.78770332554448
  C   6.26123952633974      6.78251511371215      5.34918575338181
  C   6.89768146230216      8.00866526113638      1.88702695226537
  C   5.28212654815709      5.71484137985350      5.13784808103057
  C   4.21290638241297      5.44464920564651      5.99169716381483
  H   4.03873331230184      6.05930750095323      6.86880815572740
  C   3.40188419195375      4.33488945638989      5.71991353414676
  H   2.56129531192654      4.09743929354234      6.36707854559687
  C   3.69543781540618      3.52094631885596      4.63352082443969
  H   3.09843168619038      2.63854685902546      4.41433665906051
  C   4.79453056865671      3.84794213267967      3.81167284701204
  C   5.88310129173682      3.21408096553501      1.63535860145545
  C   5.65082825361634      2.39434303114102      0.51035390100317
  H   4.92963024518642      1.58230621847477      0.57682777597949
  C   6.31762179590170      2.66799847752074     -0.67588783829409
  H   6.14359705745001      2.04957755167739     -1.55328671232026
  C   7.17821057919417      3.77727518022726     -0.73365356870293
  H   7.68009840963035      4.06328731573462     -1.65317289309859
  C   7.37834813504321      4.51936174714406      0.42023230420204
  H   8.01029935316643      5.39959959666247      0.43784141823863
  N   9.17944361048726      5.51253039001505      2.68402268037070
  N   9.34901494294420      7.65614498186541      3.69095257157988
  H   9.88936897987251      8.51578988664283      3.68345161582037
  N   7.38634024794073      6.66612331178802      4.57701960579496
  N   6.77664385029285      6.83136624511194      2.09473499284117
  N   5.53308986185093      4.95026308029623      4.03368787549259
  N   5.12398252809252      2.98868310240426      2.77601857774506
  H   4.52074757115556      2.17383653203303      2.71267282777980
  N   6.79246979516806      4.21079458859271      1.60908360483088
  O   7.79110329319074      3.95826134295994      4.09280676994682
