46
Coordinates from ORCA-job BOWNIL_1_1_tpss_d4_lanl2dz_631gpol_Fe2.opt
  Fe  7.02958663700571      5.61347760365242      2.95896968610205
  S   7.55907983577977      9.80948439392239      1.26553930312558
  C   9.64645723362547      4.41591600527101      2.26334111404642
  H   9.01785440106659      3.53410901683725      2.18452491314166
  C   10.96935401964793      4.40259186617373      1.84713382823380
  H   11.40361662919773      3.49233364125866      1.44391123318823
  C   11.70984412698989      5.59350815000873      1.94606564417502
  H   12.74232056785247      5.63693113096223      1.60728239149623
  C   11.11694062658106      6.71473770759909      2.51157822288988
  H   11.67333642427193      7.64058027945859      2.64069592723522
  C   9.77922614042227      6.63797618647134      2.95259576359279
  C   8.15726398983423      7.80701786921306      4.46253126670565
  C   8.05442940066157      8.88010495904298      5.36733270787547
  H   8.80183627832954      9.66946990118313      5.35701407943837
  C   6.99405094242179      8.90032185753780      6.26918350749247
  H   6.89368207463446      9.72435304518301      6.97086538699943
  C   6.07191172864383      7.84586923690689      6.27956225389847
  H   5.24723179494162      7.83762989843690      6.98548885342029
  C   6.21572321192632      6.82310187264199      5.34082433844448
  C   7.13108355810716      8.27532501481075      1.56754743410926
  C   5.32706935742337      5.67076477909461      5.19728028328616
  C   4.31795354808474      5.32159917117450      6.09075460187267
  H   4.11715774938899      5.93367406087408      6.96432067023698
  C   3.57981427259519      4.15187418585062      5.85190761257745
  H   2.79258955994079      3.85216881855642      6.53926431771791
  C   3.85585773071842      3.37709462822574      4.73226095322958
  H   3.29225069382473      2.47021037656094      4.52391944999680
  C   4.87269473180440      3.79608664304784      3.84805102925143
  C   5.85636862265905      3.30589535963007      1.56658355536686
  C   5.69727988227350      2.41950094433231      0.48059882318829
  H   5.04063502114081      1.55752812558834      0.58303004060399
  C   6.36236186320046      2.67585668675422     -0.71053079091140
  H   6.24266069017846      2.00499474110442     -1.55781141544348
  C   7.16662321869403      3.82524000651069     -0.80361102393639
  H   7.68254757530558      4.08569871791362     -1.72322234637808
  C   7.28921130874261      4.64322927817723      0.30733837739678
  H   7.87185750799006      5.55788079748213      0.29393081394897
  N   9.03102345804160      5.51955525346047      2.77225030760360
  N   9.23289862315671      7.74187556516722      3.59055347087100
  H   9.78939899151787      8.58944515992107      3.53351240592240
  N   7.22745545110602      6.82879802049172      4.41593271343439
  N   6.83057821568603      7.12683770651900      1.77376255655348
  N   5.60343779190935      4.91065107973410      4.08039345775524
  N   5.13019832832808      3.03251945463591      2.72478806300084
  H   4.54950188274228      2.20202015685588      2.65152996504147
  N   6.67374430160485      4.38686064576436      1.50302425220206
