52
Coordinates from ORCA-job BOWNIL-CH3OH_1_1_tpss_d4_lanl2dz_631gpol_Fe2.opt
  Fe  7.29823469856881      5.42842492332904      3.11377381864294
  S   7.18189912293997      9.69110320073265      1.55421244117105
  C   9.77726911715897      4.65403432723557      1.87776609599042
  H   9.18534937792722      3.75397431649924      1.76155532693532
  C   11.05629785501004      4.75224769596901      1.35244214080255
  H   11.48184901772978      3.91544914857967      0.80593763527192
  C   11.76442963158932      5.95211272371599      1.53655236848346
  H   12.75944141950819      6.08567554125155      1.11875906213364
  C   11.18472291674840      6.95947766176498      2.29343725946558
  H   11.71892658817288      7.88436113112960      2.50124140044766
  C   9.89242129033738      6.76944946422002      2.82949414910359
  C   8.29800188935807      7.79396234220958      4.50400932448444
  C   8.12753164850092      8.94384518421196      5.30439721798234
  H   8.87765330732882      9.73058734760177      5.27707896079165
  C   6.98599265182593      9.06716795439732      6.08311520633395
  H   6.83159781466538      9.95351435767862      6.69277065979364
  C   6.01622255676917      8.05763527369949      6.03103336970462
  H   5.07976277299486      8.15958655965421      6.57062726490981
  C   6.24788226777662      6.94448093215389      5.22596273245732
  C   6.94012233665260      8.11043054588482      1.85298901514374
  C   5.27951351386347      5.87330308114058      5.01399460016304
  C   4.15047966354260      5.63392333338912      5.80507353196087
  H   3.90112986215769      6.30529658774037      6.62109731559693
  C   3.37204211403996      4.50239076542499      5.54906046917867
  H   2.48190086086263      4.29987306228992      6.13925807692911
  C   3.76599949494852      3.61338357267958      4.54510804300630
  H   3.19967750085621      2.70687582034869      4.34217892322028
  C   4.91263713299645      3.90975473773950      3.79815774558625
  C   5.94893450534431      3.30485183681528      1.61580617075752
  C   5.56440910680670      2.56129420255153      0.49142850009403
  H   4.86936177550375      1.73092627854205      0.60050055244339
  C   6.06070089342970      2.92907382880427     -0.75856890765494
  H   5.77448793500995      2.37096905062148     -1.64684292821055
  C   6.89577806661405      4.05148361788875     -0.84723567961583
  H   7.27391457451082      4.40396346040740     -1.80270046755003
  C   7.23498939224266      4.73131752288837      0.31646006413050
  H   7.84983968302967      5.62395005637355      0.30489801497824
  N   9.15941244879464      5.66007464262002      2.56378577057857
  N   9.40459748483365      7.74876205289820      3.67777746657878
  H   9.94315206589051      8.60958935485249      3.66844441416684
  N   7.40996003846896      6.77507845470262      4.50720214829095
  N   6.75409825687757      6.94248774953179      2.06179320485665
  N   5.62609939258173      5.04193596902457      3.98026158852484
  N   5.43963432288168      2.95817099292343      2.89281778946738
  H   4.86110955907884      2.12040515126042      2.85147503028851
  N   6.81380508974156      4.34038765285063      1.55274656889352
  O   8.00149343471066      3.74008058708174      4.05624796265346
  C   8.37540785672944      3.85481256602573      5.45535411354544
  H   7.53507957891338      4.22192183053189      6.05729028465575
  H   8.71373190703621      2.87739300496732      5.81680255839097
  H   9.19709715969301      4.57233828472941      5.48557284453418
  H   7.27691704644516      3.07718025843501      3.96656877951054
