47
Coordinates from ORCA-job BOWNIL-oxo_1_3_tpss_d4_lanl2dz_631gpol_Fe2.opt
  Fe  7.28032338416496      5.26702508779032      3.21681895961725
  S   7.06281866731320      9.60985855505966      1.70802234395173
  C   9.82086764798114      4.46288754523453      2.09654011581305
  H   9.24203897483742      3.54695807908802      2.05077800150992
  C   11.11110113951517      4.54850937012679      1.59681134212646
  H   11.56728800346356      3.68330909623488      1.12483670592546
  C   11.79610344047617      5.76967427749190      1.72170538512257
  H   12.80215347947527      5.88819424765164      1.32637734869573
  C   11.18876234813807      6.81673818803086      2.39985604336865
  H   11.71223766868759      7.75465184368771      2.57256986685403
  C   9.88452682640848      6.64173175545819      2.91155424403842
  C   8.28355647864443      7.67323013587354      4.56774297770133
  C   8.13735394323690      8.79662144142450      5.41128903983425
  H   8.88644434748750      9.58413782734866      5.38926324749450
  C   7.02765111734873      8.88159077880456      6.23860554960960
  H   6.89588962481874      9.74361718874335      6.88730025491658
  C   6.06020455356422      7.86841336795126      6.19747398981648
  H   5.15093065340835      7.94581855272977      6.78462110929588
  C   6.26041790262334      6.78503963732619      5.34513009986905
  C   6.88526189733230      8.01285382745773      1.91839028174826
  C   5.27853911153402      5.72075144634275      5.13041729313702
  C   4.20352382880379      5.45625305298783      5.97879957666547
  H   4.02605542614277      6.07412400395995      6.85295809495934
  C   3.39021406233291      4.34857305405009      5.70564223313478
  H   2.54500641708054      4.11614973689036      6.34859749086964
  C   3.68720242106524      3.53018852836706      4.62350614240443
  H   3.08840607745804      2.64921143840483      4.40352552963039
  C   4.79197978889145      3.85060944460408      3.80677872966927
  C   5.88784052535695      3.20690900202874      1.63745845191338
  C   5.65943022571212      2.38220219211036      0.51542725312659
  H   4.94050227148533      1.56831562867128      0.58392703039602
  C   6.32661921034962      2.65395973952065     -0.67113535349578
  H   6.15557131498733      2.03187180834656     -1.54653158903025
  C   7.18296555021250      3.76628222695600     -0.73209755098901
  H   7.68374226244940      4.05151608971175     -1.65247322198777
  C   7.38006749477391      4.51273624847824      0.41960662692551
  H   8.00790405538243      5.39598583873537      0.43473540263570
  N   9.18198033714168      5.51246809594566      2.68173307291261
  N   9.35404886191690      7.65324488434698      3.69540937724871
  H   9.89420432956342      8.51303570451330      3.68846830480883
  N   7.38725780160339      6.66668803870278      4.57551886768266
  N   6.77293835658278      6.82795136009086      2.08668406300714
  N   5.53275207802974      4.95154573532793      4.02988391869950
  N   5.12580180478894      2.98594437320969      2.77722443426503
  H   4.52190360673860      2.17148100300711      2.71506947486504
  N   6.79510858524257      4.20525261006239      1.60915792124700
  O   7.79260209544769      3.95918791111302      4.09282151798935
