67
Coordinates from ORCA-job DOPTAD-oxo_0_2_tpss_d4_lanl2dz_631gpol_Mn2.opt
  Mn  8.42488803933573      1.23073205523756      4.31759172671692
  N   9.52824862971901      1.36854225753770      2.29363961086402
  C   8.84151607161773      1.21567074785799      1.14412291093182
  C   9.46292254720457      1.16878128600863     -0.10652068823402
  C   10.85680910082408      1.27994790045478     -0.17064848098070
  C   11.57390417075519      1.43310417383901      1.02168871921007
  C   10.87021710694166      1.47108254132590      2.22831355535257
  O   7.41105713436585     -0.11270798389139      3.41073620098998
  C   6.14868067217600      0.02290483317320      3.10387624473127
  C   5.40618914350769     -1.16998937200837      2.84881331151248
  C   4.06326130110523     -1.13343279772693      2.51598339204884
  C   3.38042241337562      0.10067421593530      2.39977842313314
  C   4.07659662160601      1.27879040808024      2.60707349836953
  C   5.45929406347008      1.28797531686733      2.95324682040216
  C   6.14421655478168      2.55797151757171      3.05848520598795
  N   7.37906052128113      2.66390502421481      3.50041700838455
  C   8.12810897406792      3.92804606590732      3.49130009518032
  C   5.41728291854498      3.79349110976225      2.61528822996076
  C   5.28717502322204      4.08977283879637      1.24819969620961
  C   4.62168674184411      5.25179766741768      0.84017740299297
  C   4.07406127493481      6.12031082370611      1.79411287476316
  C   4.19380804380526      5.82379727139898      3.15863292367666
  C   4.86487716442180      4.66573992060127      3.56982812710952
  H   7.76411268490455      1.12122867660720      1.25088461920356
  H   8.86396158623098      1.04016260313491     -1.00582629855806
  H   11.37344672147088      1.24293326616568     -1.12837505597041
  H   12.65874673405287      1.51563259154890      1.02305342266289
  H   11.38258601436530      1.57572548272860      3.18145971460656
  H   5.94398622660519     -2.10991736026006      2.95374270043432
  H   3.52547278605851     -2.06717566639008      2.35070584094097
  H   2.32142727798172      0.12492165041836      2.15021888415126
  H   3.55983561004411      2.23146458184602      2.51326316567922
  H   8.81469995301185      3.90698516253885      2.63186260657508
  H   7.47527863819805      4.80275913211317      3.39560299571042
  H   5.70403970539747      3.40522734937231      0.51093413894711
  H   4.52656459895733      5.47612221455003     -0.22129263088254
  H   3.55232640691763      7.02138795818377      1.47534359952512
  H   3.76272370750224      6.49156391066223      3.90313162768545
  H   4.95775820023665      4.42569976838162      4.62816774480010
  O   7.58846063062610      1.20037830740418      5.70473500515958
  O   9.74883267125583     -0.08026376550255      4.62231564681761
  N   9.59167312362780      2.67724567207637      4.96117165199054
  C   8.93908663122372      3.98688501379311      4.78633232535532
  C   10.84699536885187      0.04530510146509      5.32538958581862
  C   10.70151665361712      2.55723775929753      5.65424662859626
  H   8.26194545382585      4.14597140896359      5.63806477022368
  H   9.66391810479138      4.81003731453479      4.75550494823744
  C   11.61191447354514     -1.14004370703911      5.53345470669552
  C   11.35205533268324      1.28057510760488      5.87914410051877
  C   11.32544834401449      3.79044300948431      6.23981648357683
  C   12.77883481995958     -1.13099737941095      6.28031652204006
  H   11.21994914960340     -2.05598582960786      5.09636228333044
  C   12.55321177096712      1.24430864638285      6.64332637427028
  C   10.78831217672487      4.34685718697650      7.41340727016913
  C   12.42469718397027      4.40850048886896      5.61938843459535
  C   13.25879281113165      0.06986867796883      6.85025830574123
  H   13.32563700765892     -2.06137489110654      6.43384826022178
  H   12.91783986321441      2.17149798667594      7.07966312047095
  C   11.34571100266880      5.50917605528291      7.95913815873934
  H   9.94163130704776      3.86023074354919      7.89561271469996
  C   12.97531424263572      5.57543592120841      6.16314880945745
  H   12.84597545840053      3.97081220423155      4.71521187218880
  H   14.16920494882524      0.07459105508671      7.44642951534771
  C   12.43726788365190      6.12693581993288      7.33376179145505
  H   10.92884853585520      5.93092833818549      8.87252683260638
  H   13.82577241247946      6.05035633829192      5.67584959990941
  H   12.86880155229759      7.03205827173164      7.75846039694135
