66
Coordinates from ORCA-job DOPTAD_0_2_tpss_d4_lanl2dz_631gpol_Mn2.opt
  Mn  8.48601300266980      1.26938236555336      4.20891642914439
  N   9.42976006400769      1.31295913069594      2.45286246528852
  C   8.71238805026712      1.21861003489971      1.30170017769365
  C   9.31431007160715      1.23278972074673      0.04523975532438
  C   10.70881251529279      1.33334999146334     -0.04841418575410
  C   11.44813384766071      1.41352776999132      1.13878010811482
  C   10.78176629757271      1.40177248934511      2.36314290851915
  O   7.26575744694167     -0.09091161452571      3.77035467347970
  C   6.05911334734793      0.02925011623325      3.26534460834543
  C   5.30997377375456     -1.16941310671262      3.07752424426129
  C   4.05374349591355     -1.15794676833342      2.49536707972961
  C   3.47477464917854      0.06054317442941      2.06821572236805
  C   4.16742443022779      1.24493811187128      2.25268901414441
  C   5.45536274286909      1.28269647819101      2.86665935228125
  C   6.10510857509376      2.55758770538674      3.07209322639632
  N   7.28354895329997      2.67310469680373      3.67961956984522
  C   7.91144865744841      4.00203212769351      3.81257167401883
  C   5.43456199201106      3.79299244025143      2.54824144944223
  C   5.86344501496721      4.34900333684362      1.32986071764565
  C   5.26663827970286      5.51371329840541      0.83352408494428
  C   4.23556509821748      6.13506910440935      1.55105504742806
  C   3.80114810671801      5.58487878647604      2.76457691185571
  C   4.39525021578529      4.41755467530269      3.26050199560130
  H   7.63644449963623      1.12422153284404      1.41853516766871
  H   8.69144206176226      1.15483448259279     -0.84374042131753
  H   11.20452185840523      1.34111729019912     -1.01705630183873
  H   12.53384486931517      1.48279253218768      1.12547191164189
  H   11.31726734893681      1.45861434031816      3.30663986475219
  H   5.78296846335452     -2.09501796933721      3.39981711364195
  H   3.51358450564230     -2.09459479984352      2.35765519869969
  H   2.49237910512297      0.06957097922819      1.59925106773915
  H   3.72116198479883      2.18151772926098      1.92569050079350
  H   8.51901001331409      4.19410342662776      2.91430113230379
  H   7.16838323929587      4.80459363403139      3.89930596241909
  H   6.66479000765196      3.86142127268072      0.77542722794649
  H   5.60412022782478      5.93465813891530     -0.11269180132743
  H   3.77094983864652      7.04145714588184      1.16562717852100
  H   2.99823702209985      6.06237645668703      3.32463967612674
  H   4.05716475977182      3.98277983837271      4.19999096050251
  O   9.54940332864706     -0.06722265074699      5.00579578727895
  N   9.53964480593932      2.67514599206236      5.02233822752629
  C   8.80911012268052      3.96225462229092      5.04252446575417
  C   10.75624689866183      0.04930983950043      5.50520313387065
  C   10.71989199527791      2.57682995494026      5.62741701597349
  H   8.19538160480426      3.99727637864063      5.95579339434880
  H   9.48388636363089      4.82570130907168      5.05696584301823
  C   11.46755360206366     -1.15157120326631      5.79644275708175
  C   11.40237582473357      1.31139707196732      5.79109005741146
  C   11.37628568788507      3.79976403336231      6.19458767774758
  C   12.76111003986632     -1.12717145885592      6.29082597396010
  H   10.95108797981943     -2.08709093134951      5.59067993754317
  C   12.73546191606668      1.29065566755217      6.29793615560564
  C   11.38192974927405      4.02543393457139      7.58209246289874
  C   12.00106213143168      4.73121255388830      5.34483233381186
  C   13.41056867427139      0.10523804681034      6.53802142501291
  H   13.28346396723539     -2.06436121545275      6.48297077422956
  H   13.23094365801138      2.23887502953881      6.49602014474590
  C   11.98829880101531      5.17175149349598      8.10973599233211
  H   10.91497299352418      3.29526302261534      8.24107945236759
  C   12.61173915953941      5.87451111110894      5.87370429015861
  H   12.00729021137032      4.54952448274157      4.27030009245747
  H   14.43085332230568      0.12436834190088      6.91720655601403
  C   12.60332453552004      6.09855248330976      7.25717993819842
  H   11.98407582501025      5.33879694024006      9.18594664479414
  H   13.09617264487664      6.58712800183540      5.20745187522952
  H   13.07804572240245      6.98799705215814      7.66886612223722
