20
Coordinates from ORCA-job BODQES-oxo_0_5_tpss_d4_lanl2dz_631gpol_Co3.opt
  Co  3.46939589425915      6.46474328177270      8.00900709942567
  C   2.94877888097771      3.44239857073173      7.46687553089352
  H   3.08028290219531      2.50463367470223      6.90760444793124
  H   1.93989737984891      3.45977824247296      7.89389500523948
  N   3.07788567460785      4.62833515478762      6.59933102520843
  H   2.22727275353826      4.82768495528026      6.06947184446676
  H   3.87531983266590      4.57264052449901      5.96103789345748
  N   6.33890067306704      5.84382578232258      7.01415503465311
  C   5.25937980646127      6.15403584902394      7.37605959622604
  N   4.12887991242827      8.22416617467060     10.60327542245919
  C   3.87078342554303      7.59937999715826      9.62684181194489
  C   3.99924427240904      3.53489080888659      8.57960317998566
  H   3.90757119155499      2.68430015206065      9.26807045126215
  H   5.00840621820236      3.54519988619754      8.15392242404131
  N   3.82128069359157      4.82529264695124      9.29779584328847
  H   4.65378199320829      5.07662547609466      9.83878305710003
  H   3.02658073225449      4.79631241411112      9.94411257354180
  N   0.47626377198677      5.84412059445501      8.53836545585295
  C   1.59442657098723      6.15662320407623      8.32717077360034
  O   3.16446742021244      7.61191260974494      6.82262152942129
