20
Coordinates from ORCA-job BODQES-oxo_0_3_tpss_d4_lanl2dz_631gpol_Co3.opt
  Co  3.43747471310194      6.31073604936711      7.92200831427193
  C   2.94308261090533      3.48518201017828      7.45268392297705
  H   3.06122890769746      2.59448197323952      6.82198498629397
  H   1.93109427950819      3.50488439105993      7.87137588097515
  N   3.10320763687376      4.73471385876862      6.65400202995324
  H   2.26843836901902      4.93439017392240      6.09489632338447
  H   3.91427095407282      4.68651841407198      6.02794777713655
  N   6.41788579962194      5.87334615343881      7.24937931716161
  C   5.30648011741073      6.15088310632201      7.52167931374163
  N   4.04062576631971      8.17197072341905     10.24994031485057
  C   3.79785688853488      7.49596699215687      9.31881485320057
  C   3.98949000337299      3.52153496869472      8.56393228540353
  H   3.87887403606091      2.66860531156589      9.24560745450641
  H   5.00194978468154      3.52523192957954      8.14559367657950
  N   3.81752439175186      4.81553709896602      9.28568139275378
  H   4.65512684933523      5.07234560930531      9.81734869463951
  H   3.02118883949036      4.79572284582424      9.93163550015741
  N   0.52707917940622      5.84986093468628      8.83933188031348
  C   1.61684575953334      6.13741592252899      8.49840990657783
  O   3.13907511330169      7.46757153290430      6.78574617512164
