21
Coordinates from ORCA-job BODQES-OH_0_4_tpss_d4_lanl2dz_631gpol_Co3.opt
  Co  3.48979642132394      6.43893211373155      7.79954762373614
  C   2.92613821469965      3.46763141598499      7.45556558140029
  H   2.99309714059503      2.56895484942441      6.82705350015236
  H   1.91344991052313      3.54551186094799      7.86665742717211
  N   3.16817054772261      4.69745632081171      6.66335344568444
  H   2.37026285350641      4.93945750948138      6.06872203754703
  H   3.99806266952829      4.61124328060500      6.06823591107292
  N   6.51262197295290      5.90300816964167      7.45105553306018
  C   5.38417030886824      6.20631740755130      7.60381023627991
  N   4.10129792397398      8.20383766637696     10.23598532290093
  C   3.86607510215295      7.49851996573408      9.31821419162745
  C   3.96167377379865      3.42379469124596      8.58304106033872
  H   3.80482484572899      2.53289960087749      9.20907199154455
  H   4.97574303600314      3.38881925352146      8.16769783036197
  N   3.84395281781969      4.67686527768649      9.34380149534123
  H   4.68840939478109      4.91491744521610      9.86707841183944
  H   3.03293703989745      4.70047393017419      9.96687849601908
  N   0.62402967054502      6.02841535099367      8.87772484803073
  C   1.70581001929170      6.28409649167625      8.48665462691293
  O   3.13030944528029      7.30375624596765      6.21424611134512
  H   3.24243689100671      8.27390115234954      6.34623431763223
