19
Coordinates from ORCA-job BODQES_0_5_tpss_d4_lanl2dz_631gpol_Co3.opt
  Co  3.53002373633660      6.34994588212135      8.27498771127970
  C   2.96823945142226      3.35874149257951      7.55166975325918
  H   3.05648448765252      2.43666287422392      6.95740483706801
  H   1.97877666249593      3.36512871996916      8.02690591612591
  N   3.07549590032210      4.58331780379279      6.73792219302271
  H   2.20696499628114      4.80016455399515      6.24447405460460
  H   3.84047139493455      4.53738229549836      6.05923461702492
  N   6.10405376874193      6.32069206990107      6.49219171654489
  C   5.11854511432114      6.45475611192076      7.13425078139219
  N   4.05524811332264      8.13689965507250     10.83403977200377
  C   3.83483620366493      7.51431250114873      9.85007323988812
  C   4.06541988166382      3.39138848254198      8.62192768164419
  H   4.02100249042485      2.49618574206218      9.25725514134030
  H   5.05488388231041      3.44201284896364      8.15192392524404
  N   3.90533046551595      4.63390192730190      9.42626146316017
  H   4.73357985182270      4.83779068157915      9.99524908875625
  H   3.11117018533270      4.56604083795709     10.07389383265017
  N   0.43000250605376      6.57304508945909      7.80113759765448
  C   1.59897090738004      6.60473042991154      7.98149667733621
