25
Coordinates from ORCA-job BODQES-CH3OH_0_1_tpss_d4_lanl2dz_631gpol_Co3.opt
  Co  3.58343377857439      6.05868940623767      8.06211319337071
  C   2.93748616653488      3.33085632018017      7.60693488221177
  H   3.01607281694620      2.40946698493147      7.01458395901024
  H   1.92639217563110      3.40995965310212      8.02216712180785
  N   3.16063002931614      4.54901979377938      6.77873966186057
  H   2.33427505211027      4.77677505224109      6.21918702649678
  H   3.96278218215928      4.43607015960177      6.15044825281359
  N   6.49002810281781      5.59714692085235      7.16843230675162
  C   5.40787450513573      5.87230992855099      7.54974959456650
  N   4.23544135878957      8.22817327364550     10.08244397263687
  C   3.98085998776116      7.37940524532315      9.30529262456134
  C   3.98040308324981      3.35403630455140      8.72387206323329
  H   3.82755357451016      2.53481358620730      9.43827864283071
  H   4.99280253394627      3.29714860115365      8.30935924889678
  N   3.87294595703218      4.68203770616845      9.40246052400926
  H   4.72534627194127      4.91668230725213      9.92098411451097
  H   3.07975835908973      4.72155630030415     10.05143666372294
  N   0.57404885417159      6.01181331362361      8.73959517101898
  C   1.72861765155868      6.10098807282577      8.51338023195622
  O   3.19873427941085      7.41420804308944      6.65066704688744
  C   4.21896906290120      8.44095134373810      6.38894596640127
  H   3.80884513764186      9.12401727054903      5.63719162773422
  H   4.47288046938810      8.95679790148042      7.31914915983089
  H   5.08362099286862      7.89969219120493      6.00541788935355
  H   2.41498761651306      7.85383431940576      7.04923905352545
