25
Coordinates from ORCA-job BODQES-CH3OH_0_3_tpss_d4_lanl2dz_631gpol_Co3.opt
  Co  3.66979588971671      6.10684857780752      8.21594716834762
  C   2.94466629033307      3.34519549468509      7.55836374652389
  H   2.99069154715841      2.48173608414893      6.88094722927612
  H   1.92215895735302      3.44876406040273      7.93970860832090
  N   3.27217547023564      4.61228507705436      6.84991561692234
  H   2.49502869633984      4.93543534199185      6.26678060996248
  H   4.09741189448964      4.50754845569859      6.25215204015223
  N   6.61226801479975      5.71827154203377      7.35626701030528
  C   5.51530881636245      5.95384314049709      7.72112848205455
  N   4.20595645391987      8.48726297973262     10.06800785428726
  C   3.98238540822851      7.56177467736504      9.37093852630265
  C   3.93275969710910      3.18382399890586      8.71906680775549
  H   3.72271549765631      2.26103686284873      9.27804562869121
  H   4.95937339428305      3.13972605111343      8.33633368904130
  N   3.83429050038225      4.39511520154501      9.56513724262279
  H   4.66925835993918      4.53833376008477     10.13885736282726
  H   3.01489366492252      4.38190931200867     10.17811620951849
  N   0.64424670182040      6.14970743690814      8.87972282234344
  C   1.80475302879570      6.20511252680777      8.67592125479410
  O   3.11120766437008      7.46974264751563      6.49241974061071
  C   4.12316468299928      8.46924831674434      6.16980039515794
  H   3.72826079013911      9.14581296104860      5.40208286447210
  H   4.41729576012129      9.02108270410168      7.06932813263425
  H   4.97857480917508      7.91176683002334      5.78450932989202
  H   2.36614800934960      7.92506595892629      6.94057162718330
