26
Coordinates from ORCA-job CAXLIW-OH_0_3_tpss_d4_lanl2dz_631gpol_Fe3.opt
  Fe  0.59586537099353      3.61198275097978     11.78086886535960
  Cl  0.78923203870638      4.70960315296756      9.79895316824822
  Cl  -0.95631506977253      5.03441244419638     12.60812867780552
  Cl  -1.09988332232284      2.29470346407501     11.07249467748160
  N   2.16839081276563      4.71012095836874     12.34854108371802
  C   3.36899161575597      4.11089892666299     12.13567463764778
  C   4.55567019654545      4.72905545961997     12.54872386249946
  C   4.49253914124169      5.97619887310113     13.17552570552118
  C   3.24682059621086      6.58057945390830     13.36858821586975
  C   2.09666738947568      5.91218446974665     12.94014184524180
  N   2.04849423157189      2.42733750244445     11.08072085844975
  C   3.30183843548290      2.82730432910264     11.42110286045862
  C   4.41611003485295      2.06013294288315     11.05943858315764
  C   4.22565984891225      0.88019053780809     10.33589088407969
  C   2.92806454278219      0.49701527573256      9.98439315990534
  C   1.85458000182599      1.30071241637300     10.37843952298505
  O   0.78625976491026      2.74739743726509     13.32282574636909
  H   5.51405460143845      4.24636452222926     12.38010758150510
  H   5.40583142650347      6.46865133126300     13.50249152455897
  H   3.15404675592647      7.55328586009384     13.84414213493354
  H   1.09213134827948      6.31112128664708     13.05883060928648
  H   5.41672280257761      2.38143500530714     11.33425133121754
  H   5.08167039317156      0.27369752892283     10.04776656967024
  H   2.73757877094015     -0.40919899139622      9.41567284976868
  H   0.81679378544246      1.06911346991269     10.15079766706727
  H   -0.12831551421816      2.63350959178460     13.67054737719311
