24
Coordinates from ORCA-job CAXLIW_0_6_tpss_d4_lanl2dz_631gpol_Fe3.opt
  Fe  0.33704789627561      3.81407334961639     11.43795743572087
  Cl  0.53459035581636      4.77319331309180      9.39934647157021
  Cl  -1.00272315406675      5.14057718390183     12.73367413379317
  Cl  -1.07947805181880      2.01924029729559     11.36662907827647
  N   2.12340767028215      4.74443607280786     12.32936798391328
  C   3.31786420352552      4.12224566549599     12.15544774403867
  C   4.51200399777091      4.69805005980861     12.61318875423214
  C   4.47351754942190      5.94306280659651     13.24472756381995
  C   3.24195678724083      6.58452363140689     13.40168771450657
  C   2.08957315528093      5.94903453877461     12.93272907384899
  N   2.02243499899480      2.43788423193331     11.05614048500262
  C   3.26211354413034      2.83315216558551     11.43660059020081
  C   4.39679515643845      2.06724917447240     11.13041124463525
  C   4.24478816500135      0.88352069619908     10.40500796502092
  C   2.96452293962995      0.49560359262804      9.99977261378899
  C   1.87764651135777      1.30114026092376     10.34941110281484
  H   5.46011542920977      4.18705523670388     12.47569135634295
  H   5.39201260242012      6.40272627794452     13.60307612604244
  H   3.16292385028090      7.55721737632444     13.87980253408122
  H   1.10172357808821      6.38918418672113     13.03456109207753
  H   5.38501445169997      2.38922107761276     11.44532514254491
  H   5.11541994954645      0.27935912054755     10.15788345264123
  H   2.80021001172488     -0.41309058218524      9.42662702948619
  H   0.85661840174827      1.04934026579270     10.07683331159954
