24
Coordinates from ORCA-job CAXLIW_0_2_tpss_d4_lanl2dz_631gpol_Fe3.opt
  Fe  0.56207183423639      3.70790856752489     11.60486989019412
  Cl  0.78262577853110      4.70629054445083      9.59206732416242
  Cl  -0.90995563241139      4.96232413156264     12.69291440503561
  Cl  -0.99256927584137      2.13177706414673     11.40034549321001
  N   2.11424446550479      4.71167763947761     12.32046051940782
  C   3.32679691038686      4.10224494554108     12.17768476755734
  C   4.50313822468929      4.70518233560918     12.64097339827724
  C   4.43586654059933      5.96656327753979     13.23436137805055
  C   3.19155947229527      6.59763926944737     13.34147490484178
  C   2.05239347700647      5.94071628908803     12.87586038788216
  N   2.00937385217014      2.45251499699932     11.10256005801530
  C   3.26892887244066      2.82343844808244     11.46969912315983
  C   4.38434737126178      2.04805351447412     11.12714413199161
  C   4.20287073581452      0.89011707913101     10.37008851818698
  C   2.90913569646951      0.54009049136660      9.96799259580861
  C   1.83539530883012      1.34304634116654     10.35364526212333
  H   5.45705310240528      4.19757478302057     12.53021422344159
  H   5.33982687905070      6.45051201024350     13.59723654584374
  H   3.09227227301812      7.58622713308752     13.78193218750019
  H   1.05661458583089      6.36953452182099     12.94020353772092
  H   5.37962702459268      2.35579922365730     11.43511170824793
  H   5.05869901237383      0.28020083063434     10.08881480850451
  H   2.72259039889570     -0.34259343269188      9.36205874206526
  H   0.80719309184926      1.12115999461944     10.08418608877087
