26
Coordinates from ORCA-job CAXLIW-OH_0_5_tpss_d4_lanl2dz_631gpol_Fe3.opt
  Fe  0.32233809041367      3.67372587513180     11.67272224070934
  Cl  0.89233959856965      4.70723422173515      9.73930624713492
  Cl  -1.07366901016255      5.39322971055427     12.30402029415056
  Cl  -1.20427823124924      2.31287231536104     10.62178637967085
  N   2.12504807734069      4.66428682106680     12.45113254171192
  C   3.32644109577472      4.11967579174218     12.14103798707027
  C   4.52172469462075      4.76165164553476     12.49630571815915
  C   4.46492265038923      5.97896760675294     13.17945171983017
  C   3.21763724814657      6.52406682788151     13.49707725716170
  C   2.06497960439471      5.83277243261471     13.11240568588730
  N   2.02551751762410      2.35578379590783     11.17376909688251
  C   3.27069828793662      2.82870878038203     11.42076898418291
  C   4.40747461570818      2.11754787570772     11.00936312841852
  C   4.24509123811439      0.90370214489399     10.33707093773601
  C   2.95365564750126      0.42588774564781     10.09652883090443
  C   1.86414345619441      1.18676840254259     10.53165855710021
  O   0.19538619463983      2.82598834886816     13.23290135025824
  H   5.48234188496927      4.32316413031051     12.24206454222878
  H   5.38345905761808      6.49173027057837     13.45727751461910
  H   3.12734948829734      7.46818056877078     14.02788200465694
  H   1.06262725232995      6.20420908285573     13.31061030297015
  H   5.40345200474496      2.50476730270232     11.20409840158146
  H   5.11681302329997      0.34292759435333     10.00627089556025
  H   2.78183168585086     -0.51357344450287      9.57772157488062
  H   0.83286240018561      0.88656595832103     10.36373921662180
  H   1.09931242674692      2.61696819428546     13.55808858991170
