30
Coordinates from ORCA-job CAXLIW-CH3OH_0_6_tpss_d4_lanl2dz_631gpol_Fe3.opt
  Fe  0.47315726226610      3.75781773287364     11.47474577237500
  Cl  0.51284661973291      4.83613264207306      9.45366951537710
  Cl  -0.86452130755038      5.12649941019016     12.75768234025218
  Cl  -1.01614257397337      1.95140747352368     11.19717100239247
  N   2.31261276983225      4.74055772443531     12.15245638658842
  C   3.48509286367348      4.10665136985988     11.90075171447358
  C   4.70218527793926      4.63151283024031     12.36210984847535
  C   4.70513028618167      5.83511627553640     13.07028672655422
  C   3.49268171083290      6.49356365040694     13.29610026854139
  C   2.31579594707524      5.90793102562240     12.82175178644555
  N   2.13247875742685      2.50961601179206     10.73345995858188
  C   3.38742794880523      2.87741631248353     11.08547697340692
  C   4.50500013828863      2.15024059627742     10.64795605516929
  C   4.31524741096411      1.03904476577004      9.82335038980678
  C   3.01616853333360      0.68594736481836      9.44682448325652
  C   1.94899850383178      1.45059911292270      9.92661074651897
  O   1.04771976868206      2.48043910920700     13.31499597569914
  H   5.63672077998077      4.11247302269349     12.16985878830144
  H   5.64229720194271      6.25308186541391     13.43247825304725
  H   3.44874768040832      7.43929325987614     13.83001276502908
  H   1.33724493838860      6.35670111786762     12.97359533613452
  H   5.50928714458410      2.45010149980001     10.93335919653818
  H   5.17192334333950      0.46641326375659      9.47365637444913
  H   2.82319208945106     -0.16228257965420      8.79515306392411
  H   0.91380186520155      1.22767245059081      9.68152562727690
  C   0.76691298980417      2.94747560514045     14.65682683532416
  H   -0.28350771208149      3.24018117541610     14.75958759027730
  H   1.03054863045244      2.16019444071168     15.37558209273495
  H   1.40293149727033      3.82161981462864     14.81634435344752
  H   0.37986963391542      1.79124165572565     13.08213977959990
