30
Coordinates from ORCA-job CAXLIW-CH3OH_0_4_tpss_d4_lanl2dz_631gpol_Fe3.opt
  Fe  0.58593884209581      3.82617092741934     11.57153223689686
  Cl  0.79137494046537      5.10084610320670      9.66603761859295
  Cl  -0.81480778890690      5.01403355462081     13.03716296380616
  Cl  -1.08105338931260      2.59535013807441     10.69930197786755
  N   2.25923557330587      4.73308622553989     12.19920587515992
  C   3.45981448210789      4.15362350744879     11.90633188766201
  C   4.66120175689404      4.76431892518379     12.29230417314223
  C   4.63321924031100      5.98929297728520     12.95972177265174
  C   3.39596525180039      6.58653030211724     13.21873728658464
  C   2.23057667192544      5.93093464944564     12.82119428754121
  N   2.13957949163704      2.49993726551810     10.82603062879232
  C   3.39423969970770      2.89549573358502     11.14308918031808
  C   4.51499931125585      2.15529491808392     10.73698690024102
  C   4.31986755251897      0.99426209037594      9.98508756617923
  C   3.01745217924397      0.60400917825210      9.65512527403945
  C   1.94882385244681      1.38842088635413     10.09949175602380
  O   0.60844405201190      2.27455681557661     13.10897441157783
  H   5.60973751426557      4.28886995102530     12.06028798953069
  H   5.56102492616779      6.47231865041283     13.25869035597342
  H   3.32009088843186      7.54919816121660     13.71718412656135
  H   1.23888355115516      6.33907186228148     12.99400508136625
  H   5.52027807339835      2.47731038579203     10.99464070584503
  H   5.17543164316194      0.40669874548223      9.65831661027276
  H   2.82612099825478     -0.28895230796212      9.06545496913613
  H   0.91050944364764      1.14971416493662      9.88191091502405
  C   1.01010114550722      2.61126649348013     14.46034450473516
  H   0.50466244678226      3.52560218597438     14.79270544827088
  H   0.78177832039252      1.76977619311336     15.12604233469188
  H   2.09183860062879      2.76458558163214     14.42118446951183
  H   -0.36347927130257      2.11303573452724     13.08843669200286
