25
Coordinates from ORCA-job CAXLIW-oxo_0_4_tpss_d4_lanl2dz_631gpol_Fe3.opt
  Fe  0.51269179187257      3.64128347608897     11.75095132703833
  Cl  0.95127000133095      4.72009318310959      9.71711794606512
  Cl  -0.95613692368333      5.21988527996605     12.32857163827493
  Cl  -1.07977703813171      2.39088766280926     10.80762987538873
  N   2.10876688453596      4.69105232521673     12.39950610290930
  C   3.31754362595160      4.12639876817597     12.13830972959685
  C   4.50401586343528      4.76344028259746     12.52212902953370
  C   4.44109319639300      5.99202072580776     13.18165067801708
  C   3.18895383402155      6.55307534727930     13.44535454359896
  C   2.03997571896223      5.87093339303907     13.03968000823854
  N   2.00057801860256      2.40614926718498     11.15163171911943
  C   3.25709135851529      2.84499970503880     11.43154679537116
  C   4.37982660455067      2.10532838337694     11.04034215571550
  C   4.20395797159386      0.90101393142621     10.35715647269919
  C   2.90543744738375      0.46319242419049     10.08562229832630
  C   1.82405837581972      1.24408667148186     10.50023739573972
  O   0.41586568328819      2.85863789661629     13.21181002548412
  H   5.46395709423113      4.30542221320934     12.30413523290786
  H   5.35458122553666      6.49971945945986     13.48203605410729
  H   3.08694822103130      7.50646382813190     13.95595939903213
  H   1.03974404830361      6.25750800163921     13.20785693735394
  H   5.37787163673292      2.47092269447557     11.26259795609945
  H   5.06721308304490      0.31899067873189     10.04230883584706
  H   2.71611444549936     -0.46721442405951      9.55724265792166
  H   0.79305783117796      0.96320882500592     10.30901518561341
