61
Coordinates from ORCA-job BOJXUT-oxo_2_4_tpss_d4_lanl2dz_631gpol_Mn2.opt
  Mn  4.53022840358144     -0.00815662090946     11.19729337366976
  O   2.92103801698497      0.34947552060806     11.20264009037540
  N   4.97505423671178      0.06659335091744     13.44112530788182
  N   5.01135862110817      2.03523463979045     11.85589061340309
  N   5.07192771554270      3.00343374569587     10.84142636541392
  N   5.14408888705986      1.01941681858674      9.64303021344190
  N   4.64552494496960     -1.45189368789866      9.84952711602266
  N   3.82762340250439     -3.03518739965520     11.33095084029278
  N   4.15998722661330     -1.96930402394062     12.18481684044412
  C   5.45973161190541      3.05264995398379      8.39457832368374
  C   5.60802998366255      2.34405695582323      7.21876533735172
  C   5.50178946362172      0.06240543298944      6.06426611200121
  C   5.25057169297110     -1.29287462531556      6.17907725913143
  C   4.56381494646338     -3.23968757003481      7.68994285588917
  C   4.18474457546938     -3.64005291712921      8.95636386062666
  C   4.90904082753825     -0.98331929230187     15.60392071909268
  C   5.22414633110228      0.23975084572037     16.20797430966600
  C   5.40563958883716      1.37649173697178     15.41146974041039
  C   5.39817303275762      2.36030220212722     13.05815437487933
  C   5.18099672094956      2.36437994382769      9.61018851685428
  C   5.46978990185322      0.92186634971500      7.21038690234717
  C   4.94134100942646     -1.88356903038955      7.44733822672717
  C   4.18773838870436     -2.70231304242223     10.02828797258267
  C   4.43682368500766     -2.23444850918064     13.43089305451631
  C   4.78837182822369     -1.02505202137619     14.20489801275551
  C   5.26635807354459      1.24626767406163     14.01980708769242
  C   5.24147860465031      0.32349157302496      8.46333070493219
  C   4.97436435388473     -1.04669033623031      8.57911520782723
  C   2.47498737095405     -3.64562375358286     11.53299468389108
  C   4.45968606589916     -3.59754708605363     14.05367147373837
  C   5.96084456500847      3.68830461883690     13.46508333731814
  C   4.07351508795030      4.11667851709601     10.92213492779768
  C   1.36817623855153     -2.65198873433272     11.13125060945740
  C   2.64119320031364      3.54600475985371     10.85656230061880
  O   1.52173317334302     -2.26484569798164      9.76570709951923
  O   2.53646230704303      2.68107326830302      9.73398939314166
  H   5.56848478187545      4.13255785282868      8.40748103576046
  H   5.82013545216860      2.87508762230424      6.29321415092929
  H   5.70933931260586      0.49558811063679      5.08840928995011
  H   5.26338736743451     -1.92436161913260      5.29359767371006
  H   4.56192372884824     -3.95818820000214      6.87280212593013
  H   3.90028631474272     -4.66938184294834      9.15378453244074
  H   4.74882964313982     -1.87332688660787     16.20609271052304
  H   5.31912442582984      0.30786689189974     17.28899693505466
  H   5.63494911365089      2.33811221151861     15.86201001438424
  H   2.39094770113793     -3.95051633002073     12.57985626171576
  H   2.44553839717979     -4.55097943332487     10.91719074010679
  H   4.57601665441496     -4.36687441535986     13.28347099488943
  H   3.53411983517941     -3.79597630120337     14.61523829666194
  H   5.29441074949341     -3.67208524865010     14.76081773577473
  H   6.76234343019993      3.54711172757087     14.19973102214882
  H   5.19153827931937      4.32118441154446     13.93294204877457
  H   6.36515553696621      4.21324231575333     12.59343351860682
  H   4.25602585293576      4.70061400899336     11.82802483314851
  H   4.27076139043522      4.75875700906407     10.05897020398223
  H   1.45983422197340     -1.73315661189246     11.72099854890337
  H   0.38786798912998     -3.10838617729894     11.32955121979893
  H   1.94526759591223      4.38742521687664     10.73791915733865
  H   2.39949183209186      3.01845206210703     11.78967028374916
  H   2.46860809646260      1.75990131379738     10.09052055113317
  H   1.00253821215876     -2.87729124765205      9.20782294918829
