61
Coordinates from ORCA-job BOJXUT-oxo_2_2_tpss_d4_lanl2dz_631gpol_Mn2.opt
  Mn  4.26174239971583      0.05744170609519     11.33055893549957
  O   2.72035847937722      0.34867475639859     10.99916335716555
  N   5.14438968202744      0.01318098511042     13.29697139191915
  N   4.62071300156660      2.07365495836992     11.98346825858554
  N   4.67693332316210      3.03546316029152     10.93850334362894
  N   5.12109362890923      1.04006717691351      9.88626911210555
  N   4.63394564694865     -1.43078673899848     10.09879950110832
  N   3.45653890597662     -2.90455603840910     11.41561309276762
  N   3.79460093086434     -1.85056807313303     12.30829331407492
  C   5.36753473252151      3.04949256007583      8.56032061719484
  C   5.76363840984867      2.31125913489932      7.46513334305425
  C   5.96005875444427     -0.00257954794027      6.41233070410528
  C   5.70059382460274     -1.35741272558247      6.52849245735642
  C   4.70032597320380     -3.23145769674353      7.93639553210110
  C   4.07972164181471     -3.57493620616773      9.11916620127885
  C   5.32885140779091     -1.08432138910646     15.45457160951844
  C   5.76023035765609      0.10443702254398     16.05103059951219
  C   5.80640985462222      1.26352751213852     15.27037726142955
  C   5.38452285103724      2.33392035234825     13.01755183082135
  C   5.01423640574445      2.38467511790548      9.77067484051961
  C   5.75930159370752      0.88201490751678      7.51786999581767
  C   5.22099094836285     -1.91250556641190      7.75613619043773
  C   4.02312315213631     -2.63397105473925     10.18876378974738
  C   4.45409322495523     -2.23182623804469     13.37551730498046
  C   5.00353335717367     -1.08618132106526     14.09039231040902
  C   5.46800551630956      1.18667156607591     13.91160235723794
  C   5.41945442912430      0.30884368217804      8.75982187611647
  C   5.15195651458699     -1.06102028719523      8.87808547012413
  C   2.07544007679157     -3.43892525141671     11.51487923536900
  C   4.66694925947255     -3.64630669076648     13.82392076765009
  C   6.11421797050423      3.61887649694463     13.26582513129306
  C   3.61690576019540      4.07378409313116     10.92790927585358
  C   1.05000153100763     -2.41061464528341     10.99682890796628
  C   2.23746077034656      3.43944424031308     10.66329673545481
  O   1.37266456402337     -2.01721028020976      9.66272918658683
  O   2.31374770182652      2.66181574339225      9.47187447840696
  H   5.33877329487179      4.13392299119312      8.52154995748012
  H   6.04581894779437      2.81884766156802      6.54517985103266
  H   6.27233407203014      0.41114775600208      5.45608777693788
  H   5.80994768699611     -2.00756519652905      5.66331612957297
  H   4.76146217652025     -3.95505177656342      7.12607924253244
  H   3.65901449785293     -4.56580319606859      9.26366543569732
  H   5.22122131943353     -1.99469784856546     16.03844621135946
  H   6.01534479918499      0.13546336449697     17.10713741377672
  H   6.07742375097872      2.22068569342300     15.70807877722789
  H   1.89806008229232     -3.70470929328385     12.56289186299581
  H   2.05190960747617     -4.35985512682528     10.92103547542325
  H   4.56930767325464     -4.33174838249800     12.97666737704975
  H   3.91014703582686     -3.92273757795574     14.57418449568747
  H   5.65427040014598     -3.76560584139533     14.28320729329445
  H   7.06888291263331      3.43385023347200     13.76983579892983
  H   5.51339723114111      4.27903760979870     13.91000717061485
  H   6.29186939184811      4.13986616976142     12.31976712602706
  H   3.65233644155825      4.61338173355391     11.88024575339569
  H   3.87980433338668      4.77049302285374     10.12550946724080
  H   1.09778055359251     -1.50116617179235     11.60438704593914
  H   0.04062572328132     -2.83909148483737     11.07393734479738
  H   1.50911473059788      4.25052188656676     10.52576750608313
  H   1.93044152244642      2.82706527249144     11.52108785545203
  H   2.15486523218913      1.72768612949651      9.73061636283823
  H   0.92486000030722     -2.62530304979186      9.04157295141428
