52
Coordinates from ORCA-job ARAHEI-CH3OH_3_5_tpss_d4_lanl2dz_631gpol_Co3.opt
  C   0.88108217696759      2.49983978075944      8.42017251322485
  C   -0.12814258605231      3.16607073133292      9.11869069520100
  H   -0.85978475893312      3.77026759119547      8.58644596299798
  C   -0.17783408913551      3.04138665563157     10.51643246895767
  H   -0.95268285830772      3.55466492965072     11.08241010073997
  C   0.77906312729426      2.25958236603470     11.18194635426350
  H   0.75733194665657      2.15170343055597     12.26420335570497
  C   1.76308270406674      1.61973379980573     10.42660673726332
  C   2.81147141061558      0.69558981523037     11.00716662371220
  H   2.40092979292084     -0.32023217053167     11.08004187594031
  H   3.09877409101917      1.00526883166773     12.02094342260431
  C   5.07175310549232      1.66398472176300     10.42563364665190
  H   6.00889379891153      1.29597559913758      9.99087795957345
  H   5.21242597467748      1.75182700358803     11.51145344232329
  C   4.68019094046364      3.00334485629779      9.81240635022358
  H   3.74656725381961      3.38606224541347     10.23987594645087
  H   5.46349464767847      3.75475679942105      9.98206673125460
  C   3.77687302525462      3.89720061622875      7.63157460242059
  H   4.45758434333201      4.74679424267989      7.48508705647661
  H   2.93965252222396      4.23761753048774      8.25114318065746
  C   3.29578805100913      3.36072881119538      6.28456710303691
  H   2.75747836245186      4.13770880228102      5.72544740176279
  H   4.14567221105025      3.03052033396369      5.67470501435056
  C   1.01078117523278      2.50077731652867      6.91254881991053
  H   0.71060286030300      3.46779461055609      6.48742201355878
  H   0.34200496616615      1.74123626583268      6.48501681620970
  C   5.07553683657431     -0.59332834767930      6.03923948889734
  H   4.22328772479137     -1.01418860205317      5.49728027443490
  C   6.43707452153645     -1.81521193801941      4.42537457451009
  H   5.45692334258888     -2.09554926268129      4.03190568403310
  H   6.99135673140383     -2.70875066248877      4.73623781569588
  H   7.01341832079954     -1.28188843965429      3.66017475050913
  C   7.52147399255945     -0.44030279667834      6.23662709273869
  H   7.27306612015421      0.15692482882381      7.11408880103318
  H   8.07753785798295      0.15732468940206      5.50424464197822
  H   8.12708606269192     -1.30903374657989      6.52002957673511
  O   2.28849323986636     -0.85572512361833      7.83902401304172
  Co  3.38352654641184      0.92440520813924      8.03014361494663
  H   4.43515448846080     -0.29182609072455     10.20448607391128
  H   2.36313165488369      1.64622305225645      5.61586096354578
  H   5.36174790637182      2.59685613948600      7.90309106167219
  N   4.01334811293427      0.63981659094304     10.11716072952346
  N   4.45566465998643      2.78441395353728      8.35344024960758
  N   2.41398926602678      2.16265952681427      6.50124985963985
  N   1.80165716934582      1.74544441106528      9.07377869228043
  N   6.27837332363313     -0.92462109301360      5.60088104321047
  O   4.88335211385729      0.18102800250458      7.05599964297237
  C   2.63559794196542     -2.25542529580757      8.15989504870368
  H   2.19550864006881     -2.91003160641160      7.40193321394899
  H   3.72506492060931     -2.30965439436145      8.13266638650917
  H   2.25817388640187     -2.51001030454566      9.15517103738317
  H   1.31352042291424     -0.76083421536267      7.88044947306520
