48
Coordinates from ORCA-job ARAHEI-OH_3_6_tpss_d4_lanl2dz_631gpol_Co3.opt
  C   0.81025319979932      2.46558062708446      8.34720796624200
  C   -0.22576676838244      3.08973850809541      9.06852524144410
  H   -0.93331223835713      3.74138596463378      8.55976868351786
  C   -0.32714759133786      2.85020870434991     10.44668970255489
  H   -1.11732870202515      3.32227397153346     11.02714852259769
  C   0.59705954529444      2.00130435825863     11.07346547315324
  H   0.53573150703259      1.79732296271758     12.14057488802768
  C   1.60983279259555      1.40962274473029     10.29432563826182
  C   2.59549814642956      0.39231235735470     10.82061083382275
  H   2.10973007472332     -0.59365285453361     10.83743175300150
  H   2.89420430709374      0.62346158943884     11.85339068397713
  C   4.93116020372061      1.21215666261989     10.30958315540628
  H   5.83295801573482      0.80937169754499      9.83302907954146
  H   5.08609752359291      1.20595734827106     11.39704622410224
  C   4.63635673071500      2.62105746679919      9.80497987349443
  H   3.74354018896455      3.04230491986977     10.28146241384352
  H   5.47906970937158      3.29334854596255     10.01604164273072
  C   3.77960649769503      3.74387080392892      7.71586835613863
  H   4.51153718425995      4.56115536768263      7.66036386387948
  H   2.95142713110869      4.07759137325250      8.35210476824606
  C   3.29665862932624      3.35634530648342      6.32204776559847
  H   2.80775497479773      4.20446149569211      5.82359978253824
  H   4.13610251653265      3.02951916429014      5.69664294137542
  C   0.96173757860578      2.54575000922206      6.84608806090488
  H   0.68802236218308      3.54237566105122      6.47023509984145
  H   0.27289064003399      1.82492189284062      6.38319101480348
  C   5.13768914148656     -0.80392705135518      6.19699706731553
  H   4.36979590175988     -1.57775245209846      6.10627280290916
  C   6.49615795518846     -2.28667111451455      4.80986255619931
  H   5.59706719997475     -2.90537859592631      4.85695413236003
  H   7.35378883828855     -2.82485919690547      5.23615109180720
  H   6.72916115776465     -2.02878918843921      3.76770156030081
  C   7.42399276125568     -0.08538323031632      5.60475722746838
  H   7.15133440195874      0.78787862241396      6.19638984174795
  H   7.66615121237022      0.20190684637923      4.57300758452519
  H   8.29615255768911     -0.59308488469020      6.03740870666247
  O   2.29811448977914     -0.71903920298878      7.44538913996500
  Co  3.20423887793697      0.74594937334063      7.86036115905667
  H   4.13570506885877     -0.67221246627222      9.95924821839639
  H   2.30019275286577      1.72664743789765      5.50926199751809
  H   5.25693253322134      2.30680473431677      7.85985614714462
  N   3.79902984329861      0.29684299496014      9.93858979569241
  N   4.37457145219038      2.52868120358468      8.34047591956977
  N   2.35113065932907      2.19338128786523      6.42154169008207
  N   1.70556845174798      1.66865972471580      8.97141523974389
  N   6.29916151096319     -1.03612222342478      5.57199256615439
  O   4.91559719142272      0.26159708819926      6.87181449021270
  H   1.61881188114052     -1.42507635591649      7.35813763612174
