37
Coordinates from ORCA-job CETACO-CH3OH_2_3_tpss_d4_lanl2dz_631gpol_Co3.opt
  Co  -2.92170380909733      7.59656592131202     -2.37770279115324
  C   -5.84277959756056      8.14349060324737     -1.86634601945186
  C   -5.14708018551356      9.50590588503725     -1.92893077164770
  C   -2.81535558923294     10.48237054901389     -1.74648197102212
  C   -1.41045727469269     10.07146097908994     -1.29811517744457
  C   -0.22877831988678      8.61715657630623     -3.01889248603423
  C   -0.13018584593074      7.13924763943963     -3.39986534170752
  C   -3.14283833950512      8.50624959196893     -3.98775197035166
  O   -2.88318188549186      6.35506042479000     -0.82585510601284
  H   -5.88963173670493      7.77879159998233     -0.83183022157708
  H   -0.70555996667163      9.20139077771759     -3.81286779473219
  H   0.40934653378908      7.00937316526914     -4.34434662163830
  H   0.40234510710524      6.57698601103866     -2.62361692041485
  H   -6.86932629316341      8.21839736253907     -2.24470550920340
  H   -5.65990838059916     10.23078950222768     -1.28335715820462
  H   -5.12688602592854      9.89468932779887     -2.95248074634607
  H   -2.85991992997416     10.69989275521597     -2.81763037157805
  H   -0.66812774613227     10.80010595617359     -1.64665553017952
  H   -1.35846955187260     10.04113302407657     -0.20295440044151
  H   0.77288250570987      9.02707603380781     -2.82985957038948
  N   -5.04524329684818      7.15441956069902     -2.66591189378919
  N   -3.73039291771574      9.32487213408964     -1.48904660178754
  N   -1.08543217039572      8.69320717277781     -1.79809949604147
  N   -1.51694573859108      6.55059530655352     -3.51798213628064
  N   -3.30348271593283      9.05080039984854     -5.02099565251090
  H   -1.82052211656553      6.57513472819040     -4.49855708779764
  H   -1.51681558388481      5.56064799227256     -3.24035530198203
  H   -3.15150823379920     11.36730248833419     -1.18976204102213
  H   -5.34799002409009      6.19472620670537     -2.45678322360692
  H   -5.23551743023878      7.29144528009373     -3.66634708997036
  H   -3.72017716344244      9.12235238279172     -0.47885069729540
  H   -0.59067068380635      8.20181520437047     -1.04618555656457
  C   -1.78263013684467      5.82387230076689     -0.00016750378742
  H   -1.68856773795149      6.41909572298088      0.91319892058260
  H   -1.99489143543849      4.77653912567939      0.23102460031122
  H   -0.88138806037555      5.89743554822269     -0.61044417569948
  H   -3.73599822272477      6.13265475957006     -0.40059858322718
