37
Coordinates from ORCA-job CETACO-CH3OH_2_5_tpss_d4_lanl2dz_631gpol_Co3.opt
  Co  -2.79264036020231      7.69366663418672     -2.42340167743882
  C   -5.72713766733082      8.02280489014255     -1.61893255052269
  C   -5.17142570031306      9.42197375770984     -1.86308912764720
  C   -2.93916867965980     10.60075560597269     -1.88969528887646
  C   -1.49331514848249     10.35698792690846     -1.46151626807538
  C   -0.13963151162420      8.85061922937986     -3.00173726700555
  C   0.18059613069872      7.36936740678805     -3.18167154932371
  C   -3.15458641025979      8.41545349184356     -4.24913511390208
  O   -2.53762336808932      6.57560902762572     -0.63007255320774
  H   -5.65340500405902      7.74845787513060     -0.55984174138576
  H   -0.62888099114159      9.27146119370689     -3.88724165605832
  H   0.83608935455219      7.21228205644299     -4.04631019376386
  H   0.68694673434273      6.97455418017230     -2.29265853087744
  H   -6.78059710532098      7.95781327174959     -1.91825144935028
  H   -5.72900684088488     10.17663767809046     -1.29224994020571
  H   -5.21177603448607      9.68470951015444     -2.92654915687671
  H   -3.02744177527524     10.67026830133714     -2.97910609611010
  H   -0.82092538260701     11.08737060020060     -1.92657549397632
  H   -1.38766978283084     10.44856126954504     -0.37357437926628
  H   0.77503136950938      9.42373603128163     -2.79494110767816
  N   -4.89361402253966      7.04853658512424     -2.39776666061370
  N   -3.73080606535429      9.41182964628294     -1.45718027936387
  N   -1.08977707965515      8.95890924853403     -1.84695099949474
  N   -1.10541848399413      6.60871700757323     -3.34622395368390
  N   -3.31948567927300      8.90892706996302     -5.31234640359683
  H   -1.36793946358849      6.57739919301855     -4.33923043486741
  H   -0.98342238165536      5.63487713198236     -3.04555936483070
  H   -3.33310147770052     11.52383221186365     -1.44224887610927
  H   -5.04318235344282      6.09213928463343     -2.05559469465821
  H   -5.17654484146914      7.05526371415444     -3.38590298021202
  H   -3.68440326962693      9.32908833184809     -0.43268960920309
  H   -0.64080690645372      8.50743175106133     -1.04159633282029
  C   -2.65741948851848      5.11707494463309     -0.47019455894188
  H   -1.72759360401427      4.71854871506097     -0.05257040655546
  H   -3.50480489984143      4.88526988695076      0.18277244781359
  H   -2.82705173265303      4.71644423086456     -1.47238858318652
  H   -2.42185007675500      6.97567110808163      0.25611283187304
