31
Coordinates from ORCA-job CETACO_2_1_tpss_d4_lanl2dz_631gpol_Co3.opt
  Co  -2.89031721396600      7.81818347309226     -2.29625434302668
  C   -5.69315618529496      7.81388992942025     -1.79879411934002
  C   -5.22918460169507      9.26496707099389     -1.71607406305730
  C   -2.99572741643645     10.49904809413669     -1.48553423434167
  C   -1.48103956984185     10.17868244885777     -1.48358805794335
  C   -0.16355029105734      8.31778301805102     -2.70420849110291
  C   -0.28374171584932      6.80912037623105     -2.90318434266589
  C   -2.97702555957715      8.76710247322698     -3.83329270225978
  H   -5.69401715290004      7.33590002378585     -0.81183681639286
  H   -0.34574830503758      8.87069714402569     -3.63130875370648
  H   0.37277261687478      6.45185111677008     -3.70430632261072
  H   -0.03428924026858      6.26621365401694     -1.98354829968852
  H   -6.69964802585770      7.73167885532010     -2.22450588443863
  H   -5.82049985922653      9.84321133475554     -0.99602043434510
  H   -5.26681986317376      9.75756336485302     -2.69372846469150
  H   -3.29917218804866     10.90598678586317     -2.45300580758960
  H   -0.98224063905931     10.73458832130019     -2.28213358780048
  H   -1.00189369417874     10.43516652801717     -0.53298628131221
  H   0.81772904032478      8.59568523990095     -2.30026798795163
  N   -4.69039892066253      7.06988113780844     -2.66324022641247
  N   -3.77894720169169      9.21731695652866     -1.29771007580233
  N   -1.26030163140616      8.69109463190084     -1.73461716242857
  N   -1.73492046317357      6.49929463850851     -3.23233622829935
  N   -3.04196006402334      9.34295751356862     -4.86104342157276
  H   -1.88545177615169      6.60629466031648     -4.24539819282373
  H   -1.93438362206191      5.51042894180109     -3.02488314621935
  H   -3.26369545965305     11.21386693364476     -0.69870727772832
  H   -4.78704371520324      6.05520038066833     -2.51530917383946
  H   -4.91164811529527      7.22753122404998     -3.65675670050986
  H   -3.74886149380488      8.95282948079429     -0.29896846325615
  H   -1.01641767260303      8.25658424779093     -0.82955093684217
