33
Coordinates from ORCA-job CETACO-OH_2_6_tpss_d4_lanl2dz_631gpol_Co3.opt
  Co  -3.00548367685610      7.45241174724707     -2.26249036821315
  C   -5.98397822150574      8.21079361519114     -1.67434325138416
  C   -5.22683672496204      9.51996899649467     -1.85327521336878
  C   -2.88151025686248     10.42004618766850     -1.65661748794223
  C   -1.51140498581943      9.99984487708981     -1.12400249360309
  C   -0.20004606132801      8.53086963590731     -2.73248680323805
  C   0.04544571678153      7.05087145978379     -3.00291981726664
  C   -3.22934376010470      8.22464571349425     -4.07841928001747
  O   -2.96183936954895      6.31548619269842     -0.91012876451663
  H   -6.00749823760823      7.90430385758170     -0.62217911359287
  H   -0.61653399275540      9.04166668099473     -3.60803249926611
  H   0.75150415854891      6.92029287159697     -3.83354780258316
  H   0.46375828564576      6.55745240987648     -2.11766296030061
  H   -7.01946075612242      8.30589924363675     -2.02881834689000
  H   -5.69253555753379     10.33367160303042     -1.27956284328275
  H   -5.17564646688873      9.81546273899145     -2.90720128346284
  H   -2.86732172780376     10.57748411228003     -2.74021221914719
  H   -0.73958436496154     10.70623601229526     -1.45363940123943
  H   -1.51002541773925      9.97432907005809     -0.02805523787055
  H   0.73082767525483      9.03658245801764     -2.43687599782666
  N   -5.26077755611771      7.15840534246201     -2.44247804165106
  N   -3.82489644521542      9.30660514355378     -1.37663248675313
  N   -1.19280030774443      8.62536993546450     -1.61790149886423
  N   -1.25945412583843      6.40044829857712     -3.31848088093737
  N   -3.30661173246919      8.83965336308115     -5.08860078572295
  H   -1.49550350653352      6.49588338501504     -4.31325976777586
  H   -1.25202271313957      5.39930858176611     -3.09189446652046
  H   -3.21815089304328     11.34485036359064     -1.16579548630449
  H   -5.52604599467757      6.21386878636927     -2.14047658632287
  H   -5.44976873092766      7.23153566577812     -3.44958578219420
  H   -3.83518190518872      9.09424065980766     -0.36828920683704
  H   -0.88595453221750      8.03125511850677     -0.83740085581000
  H   -3.09715781471734      5.40746587209296     -0.55582296929386
