32
Coordinates from ORCA-job CETACO-oxo_2_3_tpss_d4_lanl2dz_631gpol_Co3.opt
  Co  -2.88502901300870      7.75176793069064     -2.21673071857833
  C   -5.68939438501740      7.80048656454127     -1.80857532614959
  C   -5.22519225657520      9.24941589601295     -1.70689999229307
  C   -3.00760344557673     10.50078977081355     -1.42655696288361
  C   -1.49802789994433     10.20735263578459     -1.63147299183299
  C   -0.14782073675234      8.28228355097548     -2.66374207216613
  C   -0.29184187490674      6.77393338244586     -2.83693963879722
  C   -2.96483021574005      8.82468857634219     -3.81963959366453
  O   -2.83624937194121      6.76022750971640     -0.87158687259608
  H   -5.66729377670347      7.29869375957936     -0.83481879266131
  H   -0.29995118095438      8.81866587378954     -3.60597284098361
  H   0.40616981111626      6.38583218582418     -3.58851065447525
  H   -0.12868170286132      6.24163975276753     -1.89324114084577
  H   -6.70233358486808      7.72852839662730     -2.22266749761014
  H   -5.82506192582269      9.81752069206107     -0.98444505766425
  H   -5.25010390183525      9.75291212205609     -2.67898274352966
  H   -3.40898091392479     11.00029378062137     -2.31096745144052
  H   -1.16577879926675     10.65084396917005     -2.57309563727257
  H   -0.88135061248706     10.60324393664932     -0.81638299801057
  H   0.83041089122850      8.54994492472059     -2.24382814089464
  N   -4.71298806836900      7.07506424108913     -2.70579435348719
  N   -3.78532053548682      9.21476459798471     -1.25850358311993
  N   -1.24215745906052      8.71581513854879     -1.72129912089754
  N   -1.71528720117585      6.49601170032943     -3.26494260506878
  N   -2.99818085957518      9.45242407795752     -4.81720616345493
  H   -1.84196034028222      6.68377786326610     -4.26815410745272
  H   -1.95463588611563      5.51010639672271     -3.09675999165506
  H   -3.19297784708286     11.12831694263806     -0.54648780576909
  H   -4.79663715745492      6.05788150395246     -2.57931696282638
  H   -4.89462327203517      7.28455756493336     -3.69620905150490
  H   -3.75542673426430      8.91825425253979     -0.27271429004581
  H   -1.02645974325572      8.35096050884843     -0.78305484036777
