49
Coordinates from ORCA-job BOFLOZ_0_5_tpss_d4_lanl2dz_631gpol_Mn3.opt
  Mn  13.56502958776540     10.41004245929468     -0.04447011669133
  O   11.70820535247134     10.50815926602597      0.36152697522563
  O   13.29312058528316     11.43390999127242     -1.56081997979226
  O   9.11831476261241     10.84430067195193      0.18257716880609
  O   12.85408818623189     11.58569562332511     -4.13152935929625
  N   13.87212754727376      9.49888512475803      1.71597811658491
  N   15.04291774800375     11.77873831429855      0.54939846695101
  C   12.94678050447399      9.04694781916225      2.52679649548881
  H   13.28720869068703      8.50473074612238      3.41811516829924
  C   11.53408673014959      9.19429317871537      2.38227806402510
  C   10.68015768402009      8.61350460396429      3.36422465872855
  H   11.12696184722225      8.04442160494253      4.17886323630382
  C   9.31130860875872      8.77240713199378      3.27807310799478
  H   8.65316509447333      8.32919293722616      4.02173006363270
  C   8.74954402189685      9.52153190298667      2.21355810459799
  H   7.66956307591377      9.63647131387791      2.16274735857486
  C   9.55841764416943     10.10433953166751      1.24190099324771
  C   10.98645663361111      9.94704365771788      1.29683783559681
  C   15.74522150965395     12.43027071918631     -0.33192543776906
  H   16.59611285690308     13.03200289992476      0.01686251500754
  C   15.48890143108820     12.45473041298064     -1.74802978117342
  C   16.45629294223428     13.05226353133465     -2.59682981003359
  H   17.38514181640447     13.41455389666217     -2.15930584869422
  C   16.23364916271516     13.14022352545750     -3.96013108823009
  H   16.98283434728232     13.57743371689875     -4.61585374484294
  C   15.02806052131794     12.65530517740503     -4.51191873570222
  H   14.86996161399469     12.72739801500216     -5.58499786764491
  C   14.05148214322459     12.07815131568560     -3.69892527939117
  C   14.26665525224845     11.95617332358073     -2.29012359589206
  C   12.59359845163676     11.66595855257194     -5.53346063040150
  H   11.60323306782193     11.22515682719579     -5.66986076431965
  H   13.33744142039517     11.09539106660365     -6.10966592286398
  H   12.58658215177010     12.71137179155404     -5.87816699384111
  C   7.70720424981156     11.03158595525228      0.07091459279370
  H   7.56558434085839     11.64326626247747     -0.82327450997032
  H   7.30431313793542     11.55756331321215      0.95001719289523
  H   7.18612926392159     10.06959223557865     -0.04953155932674
  C   15.28832875185639      9.30798162273608      2.07538451691371
  H   15.36949369770353      8.53463631807851      2.85259677218016
  H   15.79849804157010      8.94508395513161      1.17993674412902
  C   15.95491268412963     10.61891427425998      2.56710148772260
  H   17.02156772551480     10.56328045412273      2.31414076255050
  H   15.87633602319313     10.69442661124198      3.66077233770117
  C   15.34936185437009     11.90864914226017      1.97486995519687
  H   14.40278751911056     12.13688150924981      2.48268497530242
  H   16.03771159112420     12.75027759638430      2.15063985127250
  N   14.79294050878357      9.16899795842660     -0.98375918848153
  C   15.95593804994357      9.20622551716075     -1.29853462478217
  S   17.53966956646316      9.23603662307851     -1.64671267858293
