51
Coordinates from ORCA-job BOFLOZ-OH_0_4_tpss_d4_lanl2dz_631gpol_Mn3.opt
  Mn  13.56868321368301     10.87243276937951      0.36043456020068
  O   12.86788086158968     12.10277254176352      1.49859136945758
  O   11.91090338488292     10.03528097749723      0.15500355842926
  O   13.29500883273722     11.95887646110686     -1.12721084226792
  O   9.34248268573967     10.10437812743800     -0.34405893998506
  O   12.47964712944538     12.23489331387138     -3.59978333234369
  N   13.94458246996692      9.73954319750194      1.96799215195970
  N   15.36357768091101     11.74337434838349      0.62092713260994
  C   12.98063098501286      9.31714040004921      2.73758254688838
  H   13.26257691922448      8.76944867603760      3.64579303736507
  C   11.57668650845616      9.45108249141210      2.47891831597942
  C   10.65393905562312      9.11266791294463      3.50393242791772
  H   11.03464384954597      8.84591997581112      4.48940783246023
  C   9.29311081063324      9.13486851153392      3.25329753954474
  H   8.58077577203411      8.89165502168888      4.03887426932613
  C   8.81572951579540      9.46737950672730      1.96441604298916
  H   7.74331905355526      9.47789200193695      1.78443005852088
  C   9.70027936890190      9.77997458627476      0.93279652385982
  C   11.11444810356416      9.78764832760514      1.16968067412669
  C   16.05713303348788     12.25164834868781     -0.35459323395238
  H   17.03725706912814     12.68393612487458     -0.11985420790083
  C   15.61531404160983     12.33259725712070     -1.72104959058939
  C   16.55400125789391     12.64199699932576     -2.73665504696207
  H   17.60599407894737     12.73585468078365     -2.47213805889650
  C   16.13615376213406     12.78385827488710     -4.04976486210889
  H   16.85443345185961     12.99525394691005     -4.83887062340110
  C   14.76936162659606     12.65156076087261     -4.37664924741651
  H   14.45966711124152     12.76343086623807     -5.41293393899749
  C   13.82106423916558     12.37212901628876     -3.39031273522099
  C   14.23079812919705     12.19392583463089     -2.03253990643380
  C   12.02469248734084     12.33419041343939     -4.95029978639359
  H   10.94572324772470     12.16722545218051     -4.90451164645034
  H   12.49430236496094     11.56653682389742     -5.58356821154639
  H   12.23002394072813     13.33180684534698     -5.36843064287194
  C   7.94667297306648     10.09265326984479     -0.64415335389194
  H   7.87550038694501     10.36194117079208     -1.70087236131869
  H   7.40131050891649     10.82996742062563     -0.03486406427787
  H   7.51343824509696      9.09341062236153     -0.48378432883310
  C   15.33378603279745      9.35571596295375      2.24788855114394
  H   15.35238035183035      8.59227698078028      3.03904919527108
  H   15.71862232873779      8.89929073237651      1.33005472347893
  C   16.22296897066551     10.55528756471608      2.64798718285293
  H   17.25622229740900     10.31407673346580      2.36471627260926
  H   16.20299513906015     10.69201397421107      3.73825500477840
  C   15.79803080990106     11.89311173260845      2.01242780080029
  H   14.92717248367919     12.30041354576590      2.54063621583596
  H   16.62227921914410     12.61851683010740      2.07489096775706
  N   14.48673675152337      9.53184843936798     -0.74655473754218
  C   15.55186611924521      9.18291434655039     -1.17778673926056
  S   16.99585856493315      8.71082492635764     -1.74598697049513
  H   12.48974277372865     12.79626495266540      0.91461345319512
