17
Center, direct neighbour rings
C    -0.114300    6.296800    8.885600
C    -0.553900    5.388100    7.867200
C    -1.437900    4.323500    8.196300
C    -1.987700    4.187700    9.500000
C    -1.631900    5.158200   10.476200
C    -0.701800    6.193600   10.194800
C     4.168200    5.640200   10.537400
C     2.870500    5.738000    9.939600
C     4.382600    4.236100   10.782600
C     3.205200    3.570000   10.305900
Co    0.335200    4.151100    9.697000
N     2.277100    4.485100    9.844500
Sn    0.628900    3.694300   12.976400
C    -1.372800    4.084300   13.789800
C     1.934100    5.422300   13.033000
C     1.509600    2.264300   14.369500
H     0.363700    3.089000   11.322000
