72
Coordinates from ORCA-job CURPUA-CH3OH_1_5_tpss_d4_lanl2dz_631gpol_Fe2.opt
  Fe  4.58900076826717      7.10192207090796      6.31140572541403
  P   3.85097687017752     10.12862249267717      7.01508631794343
  P   4.92064620325943      7.73747514245190      3.25347018055176
  S   6.80472159426542     10.64731072239633      8.22395856765686
  S   2.88657438311124      5.39423474440684      2.43111361249356
  S   5.89909605624086      3.58942645780493      4.33683674602111
  N   5.82969155801261      8.37741757802213      7.48716234470376
  N   3.27764715769146      6.25733311470838      4.82162852835158
  N   5.77107367501080      5.52390309468209      6.39276158127023
  O   3.18734733138303      6.38326799203815      7.87090982368132
  O   3.19312165192255      8.80230809268207      6.61806301511990
  O   5.44662842315475      8.14315527809592      4.63118147588594
  C   5.83523487664642      4.68350963878529      5.52297414104715
  C   5.52213456753364      9.67134133074676      7.57232922849212
  C   7.78347155097899      9.22635822983187      8.37772242863839
  H   8.78992029877682      9.27617053514109      8.77810016619909
  C   7.10379457709753      8.11749236239490      7.93335961142021
  H   7.46993406836302      7.09721496612802      7.89330411042167
  C   3.01858702412049     10.91598908034911      8.40400760130240
  C   3.44921731832394     12.17137838266472      8.88217935084430
  H   4.24744709085418     12.71097919252724      8.37282532931812
  C   2.83768830356300     12.73501819288471     10.00524486389622
  H   3.16945343439611     13.70317066303424     10.37472032843490
  C   1.79145939844545     12.05636284021955     10.64861507122952
  H   1.31483613059867     12.49990450038948     11.52064920339641
  C   1.35303354365516     10.81450684268158     10.16992404011381
  H   0.53386941687409     10.29642568709757     10.66447644008320
  C   1.96662774181480     10.24083665821753      9.05076328148107
  H   1.62258471482261      9.28346871633417      8.66339925964206
  C   4.05013548929551     11.36897966817907      5.73347082879813
  C   3.07386521650513     12.37518420129725      5.57345776477872
  H   2.22651755226322     12.42917407603983      6.25505067323089
  C   3.20517474299134     13.31294723796008      4.54570966894557
  H   2.45726100092059     14.09441605218043      4.42622381129186
  C   4.30371426509328     13.24966553675214      3.67658104535595
  H   4.40621686345787     13.98503465131693      2.88065965699947
  C   5.27079377918171     12.24656435832661      3.82740346285019
  H   6.11766448419003     12.19798624047359      3.14644571470340
  C   5.14920077266499     11.30396161286126      4.85132194222017
  H   5.88328029326060     10.50864992524117      4.95690529006609
  C   3.64201612277987      6.47059924182635      3.55877169528541
  C   2.04234804111682      4.63817531480683      3.73487316374384
  H   1.36950922077691      3.80554111339042      3.56466815723701
  C   2.38045787387669      5.22325535136518      4.93237882115774
  H   2.02878597469615      4.93991029299397      5.91760089136046
  C   6.14926632402610      6.96190089272278      2.20797958152866
  C   5.88456750793869      6.64898860148888      0.85744303400115
  H   4.95252123647927      6.96374124738226      0.38795468027531
  C   6.83089563774358      5.93689819686477      0.11619058962391
  H   6.63260937096633      5.69397540655083     -0.92577144733726
  C   8.03558552793771      5.53891407846353      0.71617043339292
  H   8.76863780603092      4.98218443413116      0.13546748940240
  C   8.29725947090375      5.84671690879328      2.05717417033093
  H   9.22709957565871      5.52441045769343      2.52047527426423
  C   7.35409044560877      6.55304144282715      2.81039527484410
  H   7.53199099706300      6.77809914817952      3.85968165000195
  C   4.10742471122571      9.07372251058000      2.36957376138677
  C   4.70612864982130      9.71455008582295      1.26813337300695
  H   5.65959024474049      9.36042747492850      0.88070805557192
  C   4.06794580765565     10.80703981268648      0.66993200104191
  H   4.52277467683835     11.29560036588472     -0.18972762506545
  C   2.84590041706316     11.26826780402898      1.17610062406693
  H   2.35005283742937     12.11546176811510      0.70543304405715
  C   2.25728062733665     10.64551988570922      2.28712688758055
  H   1.31266877719701     11.01302932785962      2.68242522124372
  C   2.88196144322441      9.54943536217852      2.88471067981649
  H   2.43301222754505      9.06766741090145      3.75254840263059
  C   3.77861489361774      6.02862165126372      9.14785177942819
  H   4.36572368887542      6.86334851299354      9.55290987092182
  H   2.99324036145734      5.73377806127575      9.85443121022459
  H   4.43716284120627      5.18277441819490      8.94078184463930
  H   2.69735247197598      7.23003525716466      7.95848517604030
