67
Coordinates from ORCA-job CURPUA-oxo_1_1_tpss_d4_lanl2dz_631gpol_Fe2.opt
  Fe  4.45962667661146      7.33199912007845      6.53967831620247
  P   3.81264664550945     10.25707826536526      6.89931178472071
  P   4.81810535420882      7.70772967011836      3.50297433236042
  S   6.67414352302542     10.68727607879247      8.35764081439591
  S   2.45222029581613      5.55407016218949      3.03131078641467
  S   5.76859563790197      3.50312557067739      5.01328112854894
  N   5.70734345268975      8.47067883953664      7.52823748936341
  N   3.31111241556351      6.38126661211186      5.29155698244156
  N   5.72190864456537      5.90513059753576      6.48969545640918
  O   3.60892160756527      6.85215201880396      7.85276320008403
  O   3.28199613117153      8.96050241386592      6.26742642971351
  O   5.44652930114474      8.10491387300469      4.84204843605188
  C   5.70432407826601      4.87314492972674      5.85675889326462
  C   5.44166074606029      9.77691255720132      7.55977444657467
  C   7.56374459441673      9.22732228187845      8.63929103395360
  H   8.51793989908989      9.24063055130384      9.15335700627797
  C   6.89682254797127      8.14147553604536      8.12630888820724
  H   7.20304065876870      7.10210730256519      8.13372942037610
  C   2.82756168751765     10.78514965808077      8.29702123223920
  C   2.93333576045769     12.07594447958206      8.85788717488067
  H   3.57415379962548     12.82824712444648      8.39953965548137
  C   2.20414280006059     12.38789704791615     10.00850976962210
  H   2.27613084245339     13.38310221312493     10.44245577964730
  C   1.37999265588443     11.41860548825243     10.60081909927280
  H   0.81391088401778     11.66730963863756     11.49653095310511
  C   1.28558190094591     10.13244366148491     10.05138966991202
  H   0.65132560142697      9.38312509412927     10.52042790879492
  C   2.01024243582218      9.80605596387877      8.90061371116538
  H   1.96392068051717      8.80601467017883      8.47293521633958
  C   4.06123334279874     11.60103388247194      5.74645082764915
  C   3.10153130379213     12.62390361672397      5.60208890758045
  H   2.23677705241181     12.66176739875210      6.26215325349963
  C   3.26631840547429     13.59166229261796      4.60616637067148
  H   2.53328324536792     14.38875487519594      4.49944577513793
  C   4.37382894048644     13.53361066940117      3.74937290434962
  H   4.49976127496223     14.29042911787740      2.97723189784222
  C   5.31860147663078     12.50461243076142      3.87668852500426
  H   6.16975686573843     12.45823345843746      3.20104718912476
  C   5.16645380838291     11.53576419709095      4.87015619914829
  H   5.88276372581693     10.72073688843064      4.95888811577131
  C   3.48039299617122      6.56507236831019      3.98021611913753
  C   1.77654568678996      4.88469585491726      4.47603218204446
  H   1.00862744993785      4.12080354387688      4.43830415291260
  C   2.35729566748216      5.43953762436843      5.58937954662083
  H   2.15786766207233      5.21576142300060      6.63046257635750
  C   5.93114369816470      6.79639116620388      2.44110708594815
  C   5.59460431036617      6.48373236533463      1.10621233869289
  H   4.68015392770373      6.87308321179928      0.65892397316681
  C   6.44770478308998      5.67352668278331      0.35304907427108
  H   6.19508345349427      5.43008254807183     -0.67690296333668
  C   7.62970676427766      5.17776904238665      0.92545962523387
  H   8.29001304973049      4.54540380342885      0.33500582507247
  C   7.96194353178606      5.48568086945518      2.25094114208591
  H   8.87381803781911      5.08995205707958      2.69243571793221
  C   7.11296622656248      6.29073569297820      3.01704018897494
  H   7.34673560364094      6.52286259970034      4.05362998613111
  C   4.06506660211975      9.05692360646015      2.59185695515040
  C   4.72205221230274      9.65836332784205      1.49918278947050
  H   5.66168255618510      9.24887648017354      1.13249742505945
  C   4.15763078590671     10.78051116310875      0.88348901990450
  H   4.65686608350453     11.23868061340351      0.03186687463835
  C   2.95167517783272     11.31039421528158      1.36203536253595
  H   2.51504929745620     12.18258798319105      0.87870608506990
  C   2.30432987084329     10.72405937411106      2.45946635430828
  H   1.37129463056966     11.14291355259261      2.83037043276762
  C   2.85450941535530      9.59842201783792      3.07530054125680
  H   2.36674981788942      9.15085656402891      3.93906660699139
