85
Coordinates from ORCA-job BIPDEL-OH_0_1_tpss_d4_lanl2dz_631gpol_Co2.opt
  Co  -0.16631838383279     -0.19731555115291     -0.03932416548961
  O   0.00892246064701      0.91736224074565     -1.59429871568557
  S   2.37703995756186      0.32516193734957     -4.86409251818347
  O   1.75995553278404     -0.06206604084195     -6.13250236536321
  O   2.96383134336299     -0.69732672241664     -3.98603966872848
  N   1.46048312103118      2.38434272127982     -0.50372835377054
  N   0.00096001095172      1.37968169065265      1.05750906868250
  O   3.53323947934435      3.19486436790743     -1.86853645181147
  C   1.04573664520455      1.68823780157124     -1.61381753467399
  C   0.83993054379687      2.39097836517809      0.73678225674074
  C   -0.70571265572834      1.42593801256168      2.21015214001455
  H   -1.40548434806029      0.61462992426067      2.36301164793872
  C   -0.52365395345012      2.44507856766746      3.14068747038370
  H   -1.09765731584294      2.42989601879457      4.06271322427753
  C   0.40552059132397      3.45626681097567      2.85489616491724
  H   0.58233735381195      4.26336491103080      3.56357432847552
  C   1.08443530124516      3.44438691145222      1.63761487170530
  H   1.77064367357528      4.23950942188802      1.35517393318133
  C   1.80756026333074      1.83957532514432     -2.80708241916365
  N   1.26610430804519      1.17249622410952     -3.96296769250935
  C   3.60314263405568      1.58192749597036     -5.15470591473114
  C   4.33201813770032      1.60192053660169     -6.34900225614780
  H   4.11443132613068      0.86865613942265     -7.12257534412173
  C   5.32394010305641      2.57310034909214     -6.52506057352391
  H   5.89588731468555      2.60055584717333     -7.45077834677478
  C   5.57935633842176      3.50783586783658     -5.50917165630037
  H   6.35578188276032      4.25857734315911     -5.64736174822283
  C   4.83686234512152      3.48818055591945     -4.32541966669128
  H   5.01427899156033      4.20590453745503     -3.52770290202300
  C   3.82538578697236      2.53191828401741     -4.13307463250983
  C   3.03793941316290      2.56181826752036     -2.86022239128485
  C   0.14081872934147      1.84095687337626     -4.65586860339061
  H   -0.17346067229906      1.21754138642576     -5.49637720098917
  H   0.42710838414913      2.84142173777955     -5.01104592142317
  H   -0.67552560841793      1.91904755484705     -3.93104506343757
  N   3.98281630267360      0.02597473855676     -0.54379342828216
  C   4.32204311327268      0.73315027707607      0.69252054479276
  H   3.44050594984113      0.74291173122870      1.33674348933929
  H   4.62568884635588      1.75786706169653      0.44460334817901
  H   5.15017099880634      0.21999788458071      1.19965453781938
  C   5.01742372680969     -0.05903889650376     -1.57686643962292
  H   5.88228108794306     -0.61670416191497     -1.19164510464656
  H   5.33348498755897      0.95527805263686     -1.85177966176012
  H   4.61052384349539     -0.56042389030245     -2.45865900355882
  O   1.85154033713057     -0.39473128197591      0.14157164742018
  C   2.74806971585578     -0.46309928346853     -0.74113043760418
  H   2.58271968244001     -0.91079986289057     -1.72826467441172
  H   2.29976643888928      2.97368926947307     -0.69847508847604
  O   -0.25082295487932     -1.21734506536852      1.53014850997126
  S   -2.31598652323466     -0.88480008316585      5.05763764617331
  O   -1.60876358606872     -0.36456043909780      6.23132787897412
  O   -3.19328712466142     -0.02011216042311      4.26836691234093
  N   -1.65621660068734     -2.82974700540317      0.61277108262624
  N   -0.43281622839295     -1.76944059617501     -1.12928808135981
  O   -3.26570047153016     -4.04540769013446      2.27908127145626
  C   -1.20570810905681     -2.07348595169448      1.66978561081649
  C   -1.20985396031324     -2.79364817581024     -0.68493504676570
  C   0.01254299552274     -1.78501255434719     -2.40957498964864
  H   0.58627580312324     -0.91618267257227     -2.71154223228995
  C   -0.28949166162078     -2.80358662347827     -3.30333169056393
  H   0.10101245169688     -2.75924895912050     -4.31622512773444
  C   -1.11357284034644     -3.85250540311742     -2.86109085621950
  H   -1.38775140241532     -4.66538662944448     -3.53097701932112
  C   -1.57509044508527     -3.84903534452032     -1.55227602046333
  H   -2.20390355457754     -4.64773428848465     -1.16595210100995
  C   -1.75935105268073     -2.32032729613588      2.94798519859478
  N   -1.18984784590124     -1.54431704849787      4.01943097476366
  C   -3.21421611923850     -2.35340431351406      5.52663225899590
  C   -3.74678355701046     -2.47886976867073      6.81440700252791
  H   -3.57697129631934     -1.68845991766331      7.54237591853222
  C   -4.48127494740662     -3.62398777233870      7.14188486218860
  H   -4.89862600727273     -3.73204096654850      8.14169519116846
  C   -4.68023707230515     -4.62837247393021      6.18149680355596
  H   -5.25937085821571     -5.51474072716876      6.43643526862821
  C   -4.13381966070256     -4.50103569363661      4.90176893176163
  H   -4.27471390491843     -5.26571324097601      4.14115091783549
  C   -3.37994391806102     -3.36694377255518      4.55667050276927
  C   -2.79576823858548     -3.28010924417153      3.18007559032097
  C   0.08933679068239     -2.03076791647549      4.57988700598816
  H   0.41068947762734     -1.34231933185245      5.36552883632277
  H   -0.00800945743295     -3.04892758315684      4.98692949987214
  H   0.81723356913658     -2.02362443718268      3.76217442317987
  O   -1.98924014381477      0.01127081415939     -0.00692240316430
  H   -2.38143712331226     -3.52127494378528      0.91638641879815
  H   -2.14541848831754      0.68989792351137     -0.69759167817591
