84
Coordinates from ORCA-job BIPDEL-oxo_0_4_tpss_d4_lanl2dz_631gpol_Co2.opt
  Co  -0.34373968000293     -0.12407188806106     -0.06801411298399
  O   -0.11861444302711      1.13722629836839     -1.74102927288861
  S   2.31582626033988      0.41845416422321     -4.94968887252322
  O   1.71308006783615      0.08775643322274     -6.24078371566295
  O   2.81854341823317     -0.65586342769334     -4.07851998683610
  N   1.36625811480018      2.51994829193987     -0.59720945191038
  N   -0.03613772772769      1.50115845008167      1.04145093896779
  O   3.55618544001917      3.17654040462951     -1.87788433970998
  C   0.94783291703695      1.83382830532828     -1.72605430071175
  C   0.81572719878198      2.49007729908440      0.67178934892081
  C   -0.58534797833039      1.49987154197899      2.27889400837006
  H   -1.27225524164147      0.68735079177961      2.48979005582578
  C   -0.26903375098648      2.46310517003384      3.22971538445604
  H   -0.72770971648446      2.41367598154642      4.21331699575921
  C   0.64843728759445      3.46665933468903      2.87878807332208
  H   0.92906479323575      4.23575867043675      3.59623211021370
  C   1.18820772913292      3.48956832264931      1.59689097152776
  H   1.87745574911332      4.26940484228992      1.28083943090849
  C   1.78258876432504      1.93809525541505     -2.88409201122470
  N   1.23465132518674      1.31356682093421     -4.06213957521078
  C   3.62403271193710      1.60084180492089     -5.18510404669946
  C   4.38482752485841      1.59529554733562     -6.35985277323654
  H   4.14279781207007      0.89010481504460     -7.15206674702989
  C   5.43969157173115      2.50489138417981     -6.49218004557752
  H   6.03741238000384      2.51162776621585     -7.40188997295924
  C   5.72496153169625      3.40484828470566     -5.45288820770841
  H   6.55019427345092      4.10756941120244     -5.55712322906096
  C   4.94992784079579      3.41292925494818     -4.29011548631770
  H   5.14784574728083      4.10579028636441     -3.47538721779683
  C   3.87585473429498      2.51896783329131     -4.14145868020304
  C   3.05369025134132      2.58072299007602     -2.89185958733393
  C   0.16135937656321      2.04899319677218     -4.77212801232202
  H   -0.17479658769758      1.44606851553286     -5.61898042694504
  H   0.51382619610235      3.03036674116643     -5.12082156967866
  H   -0.65909317010890      2.17351222041845     -4.05904687464429
  N   3.82771358145519      0.02180486661319     -0.66597746802510
  C   4.17737668546419      0.69175310818151      0.58951101753050
  H   3.29238436015405      0.71587098734732      1.22801922086519
  H   4.51529857761209      1.71039268962253      0.36425918834179
  H   4.98414237433130      0.13871780707211      1.08830807336144
  C   4.87971510846222     -0.09685776766633     -1.67971100254593
  H   5.70361983560651     -0.70696891714057     -1.28527183630464
  H   5.25278668069852      0.90566809258685     -1.92266433244987
  H   4.46614793012828     -0.55760143244222     -2.58023087491784
  O   1.66826941636326     -0.28320691869825     -0.03127639074659
  C   2.57669392578744     -0.39075570434711     -0.90276538188896
  H   2.40368599620121     -0.82112038693851     -1.89526334978380
  H   2.24692433487781      3.05403641298362     -0.77109439897140
  O   -0.13886089044687     -1.29263492616521      1.60730787400443
  S   -2.43999922241775     -0.88625900082089      4.98244813284646
  O   -1.84014594969024     -0.26495291353372      6.16749347688369
  O   -3.28829900626089     -0.11139441917061      4.07724917319358
  N   -1.47041081130262     -2.96603683101093      0.68381860220999
  N   -0.51321860363340     -1.77405038970755     -1.14527989166224
  O   -3.09626433068121     -4.19912144498649      2.31484983538661
  C   -1.05989429651650     -2.16863105972551      1.74719931174120
  C   -1.06956229701359     -2.90432620581942     -0.62862570169394
  C   -0.15849658557020     -1.72535164561027     -2.45334259915923
  H   0.22938583831247     -0.76682581361876     -2.78953408577255
  C   -0.32075135509156     -2.80480648818499     -3.31025224591241
  H   -0.00888101980601     -2.71894235122620     -4.34718715997317
  C   -0.90571664437856     -3.97637316463096     -2.79679927241008
  H   -1.06230982160574     -4.84297500575374     -3.43657153360321
  C   -1.28262811714409     -4.02860256089746     -1.46219741936494
  H   -1.73019019781644     -4.92030045371271     -1.02976104004851
  C   -1.68569550915548     -2.40056389934430      2.99905698473650
  N   -1.21776915950301     -1.55654075866493      4.06858496921499
  C   -3.31111711807395     -2.36270208218902      5.47484307049784
  C   -3.92217128756266     -2.44665657878876      6.73047458637540
  H   -3.83077750149500     -1.61562273606549      7.42663585825166
  C   -4.63459474374811     -3.60307605517866      7.06750528107925
  H   -5.11293134945364     -3.67932195940273      8.04261429000989
  C   -4.73401012325989     -4.65922590063452      6.14815829802961
  H   -5.29657250981794     -5.55420209776892      6.40997781347503
  C   -4.10989189198801     -4.57204229751535      4.90077785936064
  H   -4.17342888809903     -5.37710374975261      4.17212461878515
  C   -3.37625008253295     -3.42732969540554      4.54813559743627
  C   -2.70827480528080     -3.37859768360679      3.20798086105934
  C   0.03422403855951     -1.96398685372853      4.74002565868291
  H   0.27530722924211     -1.22485003387767      5.50828182605956
  H   -0.05514639902142     -2.96336674623826      5.19282377168178
  H   0.81638689163751     -1.96969170023507      3.97393270173497
  O   -1.95893868419616      0.04687346929954      0.02450382745722
  H   -2.15551632408493     -3.69648191855259      0.99811540384578
