83
Coordinates from ORCA-job BIPDEL_0_4_tpss_d4_lanl2dz_631gpol_Co2.opt
  Co  -0.05696114650123      0.05412522409438      0.12362794492034
  O   0.09346407208663      1.29843281544861     -1.50011627908296
  S   2.26428978377489      0.28320391922943     -4.86494271247128
  O   1.53259359396911     -0.09024197585337     -6.07581983836462
  O   2.82214856130911     -0.75927482029826     -3.99140176499891
  N   1.78635398594366      2.57136751470318     -0.53541338335384
  N   0.38115085646788      1.78883926636848      1.21305179352832
  O   3.87613980097872      3.07371068839959     -2.02128679052388
  C   1.22004217733537      1.89262356170458     -1.60149382683936
  C   1.30282097149568      2.67641894300650      0.75729979662667
  C   -0.08127285063568      1.91859600727417      2.48205899144729
  H   -0.81055556527432      1.16817229919861      2.77916023848767
  C   0.36397859599222      2.90946875158286      3.35087678172270
  H   -0.03944219572073      2.96918676086221      4.35809963722652
  C   1.34263539946673      3.80653599483017      2.89116937774857
  H   1.72379982568389      4.59228592996437      3.54109913090907
  C   1.81652032366815      3.69544985235641      1.58878922628423
  H   2.55780861443640      4.38515281883970      1.19090907285081
  C   1.96235095822240      1.89393401112328     -2.82380930661261
  N   1.28936359134098      1.25166790165222     -3.92666376970402
  C   3.56878489916571      1.41790207942745     -5.27488150757387
  C   4.20387024371299      1.35958529528622     -6.52020061754344
  H   3.86121679574872      0.64311491458198     -7.26369154971667
  C   5.26701763075369      2.23053641536600     -6.78237168098809
  H   5.76889874472144      2.19720229683750     -7.74772578976714
  C   5.68562628241154      3.14236268880348     -5.79999617263497
  H   6.51790731367717      3.81394395681476     -6.00491489185179
  C   5.03426489175827      3.20280236106088     -4.56498878541865
  H   5.33563017165017      3.90681643835994     -3.79266488213992
  C   3.95263164997166      2.35010464531717     -4.28564763682760
  C   3.25635846422052      2.47344295605935     -2.96617313268726
  C   0.21443515973034      2.02470620274597     -4.59308215338220
  H   -0.23073234848548      1.40369440696744     -5.37408290044310
  H   0.60190022355560      2.95880685969001     -5.02510502701811
  H   -0.53355149542243      2.24573567439695     -3.82581708309839
  N   4.07034686347444     -0.03979771786596     -0.63246247302876
  C   4.48015749572525      0.61557237947054      0.60995876346123
  H   3.61815063811899      0.65189983207158      1.27916848167913
  H   4.82848704645021      1.62975593078922      0.37895045909290
  H   5.29528974115431      0.04948539010106      1.08094665029046
  C   5.05868713431153     -0.12270786513935     -1.71133654262593
  H   5.91114811288789     -0.73562529225576     -1.38692077564526
  H   5.40617417285287      0.88861705191862     -1.95447972833851
  H   4.59195932137366     -0.56806083466431     -2.59394224718355
  O   1.95577687352085     -0.45519819543634      0.12890453842411
  C   2.81920164828458     -0.49938768310414     -0.78950611954041
  H   2.59955103144978     -0.90995667315109     -1.78275382808509
  H   2.68452307163333      3.03461670267358     -0.80595656615599
  O   -0.94141078031240     -0.76580237313216      1.64138888385976
  S   -3.24548899590763     -1.04656546124628      5.05439622731090
  O   -2.77015095067225     -0.34822863824018      6.25103902734860
  O   -4.30445819332917     -0.49322922623117      4.21555725371346
  N   -1.80633616151707     -2.71040384637748      0.66825170671968
  N   -0.69460235922898     -1.52961138129402     -1.08530682957134
  O   -3.17817347614946     -4.28582117753287      2.23088031916826
  C   -1.62700750401637     -1.84979911971253      1.73492425439060
  C   -1.36750461781919     -2.62184533192795     -0.63569482131478
  C   -0.29656337731832     -1.50345379401528     -2.38595737426247
  H   0.21083422150567     -0.59101352584489     -2.68784562298930
  C   -0.53050232311423     -2.53918318278355     -3.27972743448288
  H   -0.17915440515976     -2.45752963591567     -4.30471912806162
  C   -1.22739794577724     -3.66880890522001     -2.81423673085246
  H   -1.43751889273399     -4.50547398113576     -3.47833065650417
  C   -1.65057864763558     -3.71315933958721     -1.49353277234174
  H   -2.19310303542594     -4.56867507550889     -1.09728209505362
  C   -2.20615908577398     -2.23354011881715      2.97182243134081
  N   -1.92227056919087     -1.34718083054301      4.07241210769989
  C   -3.68220302924167     -2.71776992085533      5.49859339510159
  C   -4.17946643018470     -3.01652346528804      6.77141352876873
  H   -4.25857401846717     -2.22475400744972      7.51326980090213
  C   -4.55955768735677     -4.33100490753967      7.06478832760310
  H   -4.94668161252376     -4.57518574117885      8.05273462647551
  C   -4.44395781016678     -5.33058494109966      6.08564471958136
  H   -4.74796833514809     -6.35094978809741      6.31467688961227
  C   -3.93405537412018     -5.02599966518766      4.82079828761676
  H   -3.83310728414589     -5.78377630176869      4.04712069647980
  C   -3.53267021846568     -3.71576749159884      4.51083937478704
  C   -2.96321335580456     -3.43602173251075      3.15481585385979
  C   -0.61111779118187     -1.54394272031396      4.73146923819273
  H   -0.50227362665657     -0.80097091787869      5.52591871821010
  H   -0.51518859193044     -2.55792795042378      5.14992018439644
  H   0.15671765697006     -1.38455746248637      3.96729127057968
  H   -2.36787652444677     -3.54806372286634      0.96344522066155
