84
Coordinates from ORCA-job BIPDEL-oxo_0_2_tpss_d4_lanl2dz_631gpol_Co2.opt
  Co  -0.20148229111163     -0.19773558737182     -0.05822650965425
  O   0.03481397991355      0.91356803500321     -1.61919029618719
  S   2.39561891947381      0.34950723413987     -4.89098641034437
  O   1.77646551014907     -0.02921460208281     -6.16100325897765
  O   2.98886735700674     -0.68050486815618     -4.02506382194682
  N   1.48638655493555      2.36938810394815     -0.51178702178271
  N   0.02979678219071      1.36421933696240      1.05945186044274
  O   3.55492772770642      3.19550383883632     -1.87301858148895
  C   1.06760059378707      1.68090236910627     -1.62821592126475
  C   0.88382683851317      2.36301022106570      0.73359820342445
  C   -0.65040816021015      1.40426637715330      2.22850762441270
  H   -1.36443803790405      0.60493960576157      2.38245237724106
  C   -0.43322385653359      2.40517827012962      3.16947029683939
  H   -0.99273310668464      2.38787449532348      4.10012533967161
  C   0.51154151114757      3.40145893816400      2.88013193480746
  H   0.71834162772935      4.19422317137332      3.59674818527479
  C   1.16683145433548      3.39380587348562      1.65122835045695
  H   1.86567573731126      4.17773614218893      1.36884070707732
  C   1.83015444878559      1.84580491711901     -2.82112922425295
  N   1.28686515806351      1.18472685530007     -3.97911375404697
  C   3.61874810011510      1.61081303503041     -5.17380419238494
  C   4.34409781625427      1.64241396758858     -6.37000223185255
  H   4.12531037530583      0.91548870769574     -7.14918373196555
  C   5.33414071234204      2.61640483217050     -6.54057591428312
  H   5.90346981990047      2.65263852918823     -7.46760547123050
  C   5.59116173988619      3.54271352535108     -5.51734931432690
  H   6.36616501223997      4.29570411085702     -5.65125101636278
  C   4.85190899676463      3.51194396562459     -4.33182214135226
  H   5.03035481660245      4.22314008007280     -3.52853611418835
  C   3.84212110229459      2.55277731652133     -4.14485019162626
  C   3.05772250290930      2.57030305830951     -2.87026934541864
  C   0.13770078802115      1.83651967796274     -4.65019345472247
  H   -0.16737640741654      1.21915550126870     -5.49849713712126
  H   0.39822979992738      2.84866004961220     -4.99095745495885
  H   -0.67339053604342      1.88101011667351     -3.91672153359939
  N   3.98981433140884      0.02163987667463     -0.57035343115904
  C   4.31258323153641      0.71214722646366      0.67955086052410
  H   3.43644915771356      0.67368154870310      1.33013766054820
  H   4.57688028218443      1.75295435063288      0.45499022266523
  H   5.16343548748894      0.21745950197183      1.16690062166186
  C   5.03159532826795     -0.03093159471461     -1.59878187987845
  H   5.90311234471088     -0.57958342510405     -1.21571229217856
  H   5.33149888256169      0.99233173082303     -1.85735287230744
  H   4.63806167724909     -0.52718408928502     -2.48966685253105
  O   1.85350364301618     -0.43199975452874      0.08579679404486
  C   2.76164772315965     -0.47659137399790     -0.78551617451269
  H   2.61446891124413     -0.91574747017914     -1.77977914667568
  H   2.32496901938719      2.96094316106373     -0.70774747364591
  O   -0.24500749848650     -1.24972634087455      1.49165530071535
  S   -2.29063780447024     -0.87065003315198      5.03835353249297
  O   -1.55966186555609     -0.38771574364850      6.21298215806460
  O   -3.14061845872418      0.03094816950888      4.26114177864682
  N   -1.73395001677714     -2.78151161066190      0.56461850034157
  N   -0.46451823310420     -1.76270666891592     -1.16225342473306
  O   -3.36296523487494     -3.96467445305977      2.23143445876152
  C   -1.24421034525824     -2.05872794977839      1.63163930241948
  C   -1.24529835518120     -2.78443743334175     -0.72064134960182
  C   0.00650766217140     -1.78073361664879     -2.43231469201800
  H   0.57363051996509     -0.90579238254547     -2.72997688253974
  C   -0.26761648373404     -2.81493529326428     -3.31724716866219
  H   0.14059923203205     -2.77853430537186     -4.32328900309897
  C   -1.08898717478297     -3.86724651219038     -2.87845861491364
  H   -1.33956892376939     -4.69081478088418     -3.54437750870683
  C   -1.58110707344717     -3.85434806582229     -1.58016631122754
  H   -2.21171415812936     -4.65379346144748     -1.19889899325232
  C   -1.79660822571715     -2.29750659471946      2.90890924705864
  N   -1.19238896256128     -1.55685897456412      3.98594034937587
  C   -3.23617885425758     -2.31292917251248      5.49661732890941
  C   -3.76616853961943     -2.43386219657006      6.78571297450582
  H   -3.56633362691899     -1.65744088979392      7.52097915101488
  C   -4.53707091500171     -3.55726125537417      7.10516348503440
  H   -4.95268445309617     -3.66171206656730      8.10599558620444
  C   -4.77457026995570     -4.54442262764050      6.13586790893598
  H   -5.38182871192511     -5.41334063465951      6.38491115054415
  C   -4.23123459353136     -4.42194919971380      4.85434612497018
  H   -4.40228059396083     -5.17366596124044      4.08709663086299
  C   -3.44177792110382     -3.30994204265204      4.51712482308336
  C   -2.86391951203234     -3.22691058749562      3.13832160492180
  C   0.07005772084410     -2.09791986015932      4.53545617852337
  H   0.41753772937587     -1.43242281388333      5.32959730941988
  H   -0.06384821884069     -3.11711671116462      4.92889542789804
  H   0.79601998329336     -2.10533447397438      3.71614459073299
  O   -1.90688839482316      0.05785460380593     -0.02842602727862
  H   -2.47362283567807     -3.45902294892262      0.86607820173072
