89
Coordinates from ORCA-job BIPDEL-CH3OH_0_4_tpss_d4_lanl2dz_631gpol_Co2.opt
  Co  0.47885578034365     -0.56129624888588      0.25438976296395
  O   0.30026164506209      0.76304672176518     -1.27985968753462
  S   2.28358497625805      0.35067053764833     -4.86754365558771
  O   1.52197010785423     -0.09185105484956     -6.03686737778513
  O   3.10223843395977     -0.61113737067040     -4.11700231331684
  N   1.77724675480173      2.32623150441576     -0.38364852781915
  N   0.84398531237776      1.14082914129645      1.45372148479471
  O   3.58002790674418      3.30496156189003     -2.01243328113317
  C   1.27019219813394      1.58256462618857     -1.43211469743556
  C   1.46238853560477      2.24249528701674      0.96535759184044
  C   0.56251835956016      1.08100737120097      2.77499659443651
  H   0.09508584733113      0.15283360150991      3.09550483236910
  C   0.87988207745787      2.10114389103870      3.66679669638079
  H   0.61456189356770      2.00454058077952      4.71620509934157
  C   1.54136936072779      3.23434957989522      3.16610906114425
  H   1.81635153522655      4.05447194215439      3.82734699372171
  C   1.83958101032682      3.31015702027596      1.80903436289052
  H   2.33915959519692      4.17783529881812      1.38295975050736
  C   1.87823874005036      1.78449231036114     -2.71170709966831
  N   1.24090905901675      1.07052454854913     -3.79180227013959
  C   3.31429126790145      1.73052799974785     -5.31141092707162
  C   3.84265598784187      1.84186586464397     -6.60249477463136
  H   3.58115923262845      1.10018694694560     -7.35423323915718
  C   4.69479719832345      2.91092120060522     -6.89936493860909
  H   5.11172096908956      3.00935504675627     -7.90014004105095
  C   5.01150134651548      3.85151825033424     -5.90608786740445
  H   5.68051835700714      4.67864056734347     -6.13831487830938
  C   4.46634740890980      3.73982861266318     -4.62434474495466
  H   4.69275062384175      4.45974481810847     -3.84104376157264
  C   3.59539310316831      2.68342856204302     -4.30753821030488
  C   3.01013517570933      2.61970262951220     -2.93051907985115
  C   -0.02606173206644      1.63786537309380     -4.30711643140167
  H   -0.41606098081522      0.97778654731496     -5.08573416488538
  H   0.12177438315221      2.65160941446053     -4.70754211818452
  H   -0.72148813719825      1.66519871735395     -3.46280901776430
  N   4.54219817455950      0.23689775720486     -0.85443633686904
  C   4.92728160265518      0.98493479870748      0.34180070149345
  H   4.17051908452877      0.81038681696864      1.10963894979212
  H   4.98331471022409      2.05262076289253      0.09538802484802
  H   5.90838958220705      0.64080842653196      0.69723646102551
  C   5.41516870288151      0.33799166198463     -2.02428399662138
  H   6.40329303158602     -0.08383557829377     -1.79060819587946
  H   5.52861294312036      1.39416537091229     -2.29894779904667
  H   4.96575802723112     -0.20582153150380     -2.85966568539587
  O   2.61942990860038     -0.55274894101506      0.09828636331400
  C   3.38893776300996     -0.45802056620355     -0.88942572721812
  H   3.17489040785324     -0.92931555921793     -1.85735806344991
  H   2.52976763685746      2.97759440189180     -0.70254985420986
  O   0.47063148764458     -1.82665735810873      1.80641902291347
  S   -2.40193661718823     -0.75201930930567      4.35712936285194
  O   -2.08586702961552      0.05571831668441      5.53613477052715
  O   -2.78943703919949     -0.08857123398619      3.09769042484324
  N   -0.80693254300657     -3.48890500412375      0.78171413842611
  N   0.10796661409082     -2.19932667124853     -0.99904963571705
  O   -2.89267296481186     -4.36779785446368      2.13158077207328
  C   -0.52461691427231     -2.63211070133752      1.83414658070170
  C   -0.43767847451860     -3.35597959683430     -0.54748347450046
  C   0.42142904170905     -2.09391011388084     -2.31342148317421
  H   0.82739909705129     -1.13096891229408     -2.61177205910070
  C   0.20733493844098     -3.11443160073051     -3.23284919598532
  H   0.47871700104156     -2.96954827768391     -4.27523559323499
  C   -0.36787878025097     -4.30986592394150     -2.76853710776947
  H   -0.55779596580488     -5.13640901732581     -3.45136961304613
  C   -0.69125870039644     -4.43671559409565     -1.42258398005370
  H   -1.13090340809511     -5.34903038305843     -1.02548119269970
  C   -1.41189611809717     -2.68511167214298      2.94862543651482
  N   -1.11491236169245     -1.73994249195397      4.00249595800317
  C   -3.64000351792063     -1.96122847249640      4.77368083979701
  C   -4.59419457519909     -1.70682745827916      5.76442279908221
  H   -4.56753334152167     -0.76423615795369      6.30691159695782
  C   -5.56026183795462     -2.68083999744111      6.04123478545111
  H   -6.30703837061011     -2.49806493761617      6.81176635899425
  C   -5.56532214057360     -3.88757200401595      5.32401658258699
  H   -6.32395013628872     -4.63925381977274      5.53643382767736
  C   -4.60106786606213     -4.13398025718720      4.34226230813068
  H   -4.59067587129818     -5.05842278803604      3.76915328569262
  C   -3.61174087986009     -3.17939821972671      4.05943966803889
  C   -2.60363814894310     -3.46880862109215      2.98330171642364
  C   -0.27876987675545     -2.22962599922847      5.12031095399909
  H   -0.12705509108869     -1.41630803010906      5.83548158589253
  H   -0.74219740015972     -3.09274057605726      5.62133770912071
  H   0.68230014074059     -2.52359721249523      4.68691454625835
  O   -1.67680164047370     -0.49222562384165      0.56914426209891
  H   -1.59754795328854     -4.12999745862885      1.01599926867738
  C   -2.52367450079396      0.21873287293941     -0.34972082651013
  H   -2.38392592521745      1.30486299609944     -0.26261973355499
  H   -3.57331377895355     -0.04359467838257     -0.16360964943404
  H   -2.22903323171561     -0.10155637665853     -1.35182053063755
  H   -1.98085022801647     -0.30514300237326      1.49441154708368
