36
Coordinates from ORCA-job EBEYER-OH_1_5_tpss_d4_lanl2dz_631gpol_Co2.opt
  Co  7.65308864740732      1.63262889264569      3.36493768708963
  S   4.26638560196227      0.25931935857820      0.82514017464109
  O   6.40217017727984      3.32243623529131      2.87267793352117
  N   6.11095322400077      0.45967458431084      2.95119195391121
  N   7.91287728631385      1.90461349163648      1.26529121664728
  N   5.37410429523610      4.46414590423031      1.20568439723284
  C   5.32545426560480      0.36128624973728      2.04228984014689
  C   7.10423373088658      2.80334178736252      0.65868804047869
  C   7.08646378566842      2.96203508966435     -0.73032745836313
  C   7.92063055046641      2.15073890778643     -1.50912999839800
  C   8.73907328601051      1.21088347661375     -0.87566656051616
  C   8.70827341677359      1.11869835994367      0.52088785610344
  C   6.25920688148297      3.54929385937640      1.64513294566178
  H   6.44245778176980      3.69436749327700     -1.21144841763060
  H   7.92275754164123      2.24904885368124     -2.59209646760704
  H   9.39201084859188      0.55606667038889     -1.44674144492135
  H   9.31107326879924      0.40620916650427      1.07834894026453
  H   5.14710031915904      4.57858246549912      0.22473783716268
  H   4.75662528588877      4.89969495558267      1.88489817014739
  O   8.90233613898032      3.26113050885829      4.05100026350481
  O   9.08324423230219      0.51467090895839      3.54176888930773
  N   7.01310714811596      1.92043589513026      5.35906271251495
  N   9.24653309095244      4.73663134626625      5.73256593281417
  C   7.61427032697081      2.92454804835757      6.03917017065125
  C   7.30548065786431      3.19031496496482      7.37684620915244
  C   6.34808384929694      2.39239908202768      8.01790989888205
  C   5.73207787686313      1.36016789037402      7.30477414636404
  C   6.09339913060772      1.15526538826965      5.96686268061000
  C   8.62919802003324      3.65923980454278      5.21043554606348
  H   7.79711854015634      3.98693895815620      7.93031652812725
  H   6.09389626517192      2.57630511435842      9.05925981997327
  H   4.98694228970364      0.71967919125709      7.76915654565869
  H   5.65509370018075      0.37648332463496      5.34728427553227
  H   9.03788927207535      5.11208478870062      6.65006243020981
  H   9.93199133137179      5.22399790564639      5.16233108361975
  H   9.91379793440914      1.01164107738602      3.71105622144147
