36
Coordinates from ORCA-job EBEYER-OH_1_1_tpss_d4_lanl2dz_631gpol_Co2.opt
  Co  7.31113757621682      2.08132773977944      3.34196635928449
  S   4.64619563798432     -0.06038528208438      0.75754940816423
  O   5.86710205508304      3.32711895816511      2.76353932586648
  N   6.16139614209141      0.59054210899546      3.04732601926040
  N   7.76740513982160      2.13648442378508      1.48845006859705
  N   4.84057030302717      4.15229316015138      0.91481159096796
  C   5.52520399920784      0.32386921595595      2.05107550706133
  C   6.91723594637413      2.84596902754278      0.70111716313057
  C   7.12003652872617      2.94847772343736     -0.67558418899661
  C   8.21896933818474      2.28948468267607     -1.24174425339362
  C   9.07875897727950      1.55854943700529     -0.41532217045141
  C   8.82498354140924      1.50198667869769      0.96004605736189
  C   5.82450382088758      3.45691094751778      1.50595991113158
  H   6.44589404433096      3.52744223706776     -1.30205481675973
  H   8.39606173264425      2.34709282676947     -2.31300935069689
  H   9.93752427306429      1.03234089859288     -0.82356158568267
  H   9.42338353242839      0.96136862176597      1.69173958678012
  H   4.69809682178788      4.14021555497257     -0.08880844648886
  H   4.07708772091552      4.49240062243544      1.49362644570405
  O   8.51511884455027      3.55538051221030      3.77213768890739
  O   8.73476590093455      0.99136361320268      3.75358132289490
  N   6.88524966506101      2.15374638838285      5.20219260461011
  N   9.72187250613384      4.34601559179375      5.51963980123003
  C   7.76782136625835      2.90172108655900      5.91719780798675
  C   7.68094833689112      3.00300253778867      7.30603160814031
  C   6.65908973718773      2.30835306355579      7.96746523417064
  C   5.75923267296748      1.54473160457149      7.21818970001236
  C   5.90302200754850      1.48552203774663      5.82620727091958
  C   8.71769221653389      3.61099266167805      5.02147583851373
  H   8.38096543110115      3.61408543255331      7.87102576546858
  H   6.56973441455616      2.36823029836856      9.04943632880329
  H   4.95434329849226      0.99300775604064      7.69635707338666
  H   5.26049302152840      0.89409278640252      5.18011020802583
  H   9.94280284949305      4.37549563974939      6.50819451347866
  H   10.36226491302290      4.79928701273687      4.87355209477732
  H   8.32243568627410      0.10648239343024      3.86444250783335
