34
Coordinates from ORCA-job EBEYER_1_4_tpss_d4_lanl2dz_631gpol_Co2.opt
  Co  7.21276981673229      2.48092345567467      3.28822211112444
  S   5.80807781879099     -0.59522940851571      0.67646391039350
  O   5.51503174488262      3.17431480566868      2.28284432026348
  N   6.84734568184704      0.57495432482462      3.02965559125014
  N   7.94935369143279      2.75924370818909      1.38299318884760
  N   4.55018746127737      3.13505641147307      0.22701587860786
  C   6.40361620264631      0.06557664874813      2.02716801294274
  C   6.99071953018635      2.90819160269935      0.43340390674276
  C   7.29723154154879      2.92509973169976     -0.93011579110042
  C   8.63146309074839      2.76477135910582     -1.32137431477906
  C   9.61344910683525      2.59595399014495     -0.33936375774114
  C   9.23137918619478      2.60123728804172      1.00575056629108
  C   5.62600220293994      3.06671887549202      1.03091755867926
  H   6.52487454597104      3.06720196614612     -1.68170924276351
  H   8.89623591731428      2.76882138198379     -2.37596704231095
  H   10.65870674933538      2.46219195367315     -0.60502209719465
  H   9.94655039440033      2.47241276595836      1.81405594578229
  H   4.58890368757205      2.83882109928552     -0.74214340735771
  H   3.63334701778920      3.15383289010459      0.66577452116431
  O   9.02312716941801      2.59433203573254      4.33684803961283
  N   6.55155054260779      2.72583113865758      5.22822240528195
  N   9.96325735251420      2.57506516945786      6.39764972150348
  C   7.51313300388670      2.65502433506854      6.18296469975298
  C   7.19887153564198      2.63729693006604      7.54475124919750
  C   5.85142455021522      2.69685002734961      7.92493346789803
  C   4.86604088477358      2.77330608569858      6.93574681122963
  C   5.25812347681784      2.78308148177749      5.59242968327456
  C   8.89007600200479      2.60141737355211      5.58960693618819
  H   7.97024625805187      2.57145814661536      8.30842877135060
  H   5.58043829201766      2.68061712797176      8.97793186825739
  H   3.81142197297148      2.81924755911349      7.19393855784335
  H   4.54211034965233      2.83194721433586      4.77609543448198
  H   9.90115686915945      2.56714713291710      7.40904512443008
  H   10.88667635182073      2.51838339128807      5.97683737085505
