35
Coordinates from ORCA-job EBEYER-oxo_1_4_tpss_d4_lanl2dz_631gpol_Co2.opt
  Co  7.45045260212447      1.76563834818856      3.31763232743762
  S   4.46589394861629      0.46389830352936      0.57409902462239
  O   6.19408536366251      3.23090150709605      2.80096865455680
  N   5.86502288024384      0.48644015667809      3.03126059713474
  N   7.86229952239637      1.89240771900114      1.35436164366311
  N   5.25699744433159      4.36181740468374      1.07617755602298
  C   5.26983181734815      0.45512868792618      1.98246516375375
  C   7.07833698576826      2.75461732369208      0.65785671184205
  C   7.20006473726967      2.90137131074065     -0.72564234603675
  C   8.13925618325648      2.11593123950750     -1.40287171669372
  C   8.92195756779670      1.21118090073678     -0.67732880471051
  C   8.75794668644517      1.12810780915750      0.70950057475018
  C   6.12985666530755      3.46490782574186      1.55693890202223
  H   6.57529272670099      3.60133227273214     -1.27482530808338
  H   8.24982948976671      2.20423422822050     -2.48083700229044
  H   9.65418838587170      0.57736009444012     -1.17011884406910
  H   9.33499964302822      0.45267425271596      1.33577130684387
  H   5.06825884227140      4.44670716275580      0.08351356406486
  H   4.56784757715405      4.74894399414619      1.71585682657994
  O   8.72271441752856      3.42140963701465      3.85017395678952
  O   8.60460178932101      0.65713170853641      3.59920186644548
  N   6.98941091554171      2.00567941176258      5.28038681028803
  N   9.48551179178277      4.59692361680370      5.63021120031822
  C   7.67174448192513      2.96790676016498      5.94387456696165
  C   7.41654911812246      3.23585544227541      7.29161171957671
  C   6.44861945579249      2.47354209882865      7.95966789995324
  C   5.76608456396207      1.47342646527921      7.26203980334166
  C   6.06159883859741      1.26707713466037      5.90837367116922
  C   8.67039081228764      3.67914550701654      5.07679613718725
  H   7.94208265522825      4.02610505044500      7.82217460136744
  H   6.23465711066580      2.66325368909907      9.00895226064090
  H   5.01222250739850      0.85960467107820      7.74768577860157
  H   5.56956389737314      0.52080337899165      5.28904188674735
  H   9.53911377725096      4.76366842770549      6.62823480996658
  H   10.17861479786105      5.04436645864759      5.03659419923415
