40
Coordinates from ORCA-job EBEYER-CH3OH_1_4_tpss_d4_lanl2dz_631gpol_Co2.opt
  Co  7.50121507512013      2.14315665845330      3.20056642235632
  S   4.46780693970278      0.33695497642577      0.81096369398470
  O   6.01918084350732      3.53347658993308      2.65812896141758
  N   6.34329338402355      0.46079022879750      2.92358200467101
  N   7.79667252191751      2.31416459326804      1.13313108224067
  N   4.72372103375150      4.20254626086666      0.91544852932969
  C   5.53612111281574      0.38875014374093      2.02532740837231
  C   6.82447300390116      2.99927348021137      0.48186089976745
  C   6.82109548262884      3.13974301917686     -0.90950240129245
  C   7.84037661776913      2.53122664819857     -1.64925888757318
  C   8.82736021349695      1.80408341248715     -0.97517676372018
  C   8.77116019097832      1.72173100568638      0.41972412035271
  C   5.81170330645461      3.58309738265380      1.41863296244910
  H   6.05220606777938      3.71804773912074     -1.41551401613397
  H   7.86023621135797      2.62258107412860     -2.73267443617307
  H   9.63095899993869      1.31059896917420     -1.51557357330984
  H   9.50687732738360      1.17174233027118      1.00110061505532
  H   4.40994018249629      4.01818609479656     -0.03149786758389
  H   4.00964954418149      4.48878561921926      1.58035608577027
  O   8.73238322158124      3.74017520090212      3.84757526938075
  O   9.02937422931489      0.59708064547439      3.36630553747035
  N   7.14027457121391      2.21410129799806      5.27270974304799
  N   9.31676695378015      5.07769261768686      5.58099401705638
  C   7.72125436477518      3.23747164566048      5.94536388050826
  C   7.46948463049716      3.46790506209497      7.30137961679859
  C   6.58934484524768      2.61175953325787      7.97644524997680
  C   5.99121898913562      1.55960654333772      7.27545665045020
  C   6.29159054049813      1.39393172272502      5.91780741645247
  C   8.62629217280423      4.04444185881183      5.06114232812845
  H   7.93270779774404      4.29366806454184      7.83663359958812
  H   6.37396358028461      2.77063673999689      9.03057759115713
  H   5.30028753712201      0.87799604355968      7.76480487856056
  H   5.85791608892994      0.60657461221503      5.30419570777461
  H   9.25492369028221      5.36060522726199      6.55173598049217
  H   9.90949361227909      5.62310616962171      4.96142231108264
  C   9.81347119832987      0.31883348988676      4.55046453738223
  H   10.47366184960766      1.17906285476803      4.68509649479367
  H   9.17042653014729      0.19885755125762      5.43167375412912
  H   10.41287105088358     -0.58569357271138      4.39506061235459
  H   8.34063448633611     -0.10172953495761      3.24610998343411
