44
Coordinates from ORCA-job CUKLUP_1_1_tpss_d4_lanl2dz_631gpol_Co3.opt
  Co  -0.96665660412934      3.30402141692727      1.13509281156935
  C   -2.47758830653278      3.72402668238686     -1.15947042718434
  O   -0.27835076208234      0.78363714522495      2.49307231343102
  C   -2.19778574375706      2.31770433715418     -1.14902358713353
  O   -1.00535187451458      5.93558006392475      2.39608162207711
  C   -2.55578479463738      1.32249217914920     -2.21199507588849
  O   -2.18774033929670      5.73511848513119      0.00573631687405
  O   -1.14634409353641      0.63624642918675     -0.03079861660684
  N   -0.48038586338876      2.20299880576942      2.56628787596640
  N   -0.87891228886962      4.55999629583961      2.52340710703473
  N   -1.97867761762714      4.31636965900977     -0.07034198901928
  N   -1.54732441036469      1.96401833829712     -0.03810307099905
  N   0.84961131773965      3.61574911969760      0.34351076435212
  C   0.30608298494167      1.97035182832944      4.92376438654779
  C   1.47721062157529      2.64363384145049     -0.36184667856818
  C   -0.18546482969792      2.75865120089176      3.74553946597317
  C   2.74133001915520      2.82908215509710     -0.92387168133999
  C   -0.40819415925057      4.17500457896447      3.71221855415027
  C   3.38868748151033      4.05868459820252     -0.75525424657800
  C   -0.17021675999839      5.14885627050794      4.82785028126294
  C   2.73985115145022      5.06291467248247     -0.02685001024771
  C   -3.23581649775810      4.45479672971837     -2.22867883638504
  C   1.47562838664354      4.80692153666013      0.50570298131403
  H   -1.55711596063294      6.02939472268518      1.56481103652973
  H   -0.87774966382988      0.49283837541379      0.92379392406766
  H   -0.20389110342536      1.00120357963587      4.96712831575357
  H   0.12165862970908      2.50820515886433      5.85812640028962
  H   1.38958529282769      1.78266225910917      4.85978443001563
  H   -1.04869784817230      5.79281925660258      4.95690988367963
  H   0.68169157968338      5.80376295066309      4.59644869648547
  H   0.03645014947046      4.63400459305073      5.77016885181835
  H   -2.56430674596436      4.83185942369358     -3.01565526903529
  H   -3.77055353835327      5.30661766382827     -1.79540952035550
  H   -3.19803277407496      1.76941580951070     -2.97604857281447
  H   -3.07263452768262      0.46330517544101     -1.76640174001582
  H   -1.65067253550123      0.93705079221837     -2.70185505910852
  H   0.93650452929966      1.70560950408719     -0.46997580426636
  H   3.20306225311401      2.01886963289721     -1.48297310991461
  H   4.37463717100568      4.23033868057491     -1.18144845752128
  H   3.20124082422898      6.03447037835497      0.13240593181413
  H   0.93540085240261      5.55555707742386      1.08185334304255
  H   -3.96158700067824      3.79047698455706     -2.70843399488486
  H   -1.58594995228768      6.12948783543368     -0.66792607034159
  H   0.69745335128718      0.64829377595074      2.52256652415930
