45
Coordinates from ORCA-job CUKLUP-oxo_1_5_tpss_d4_lanl2dz_631gpol_Co3.opt
  Co  -1.44866248684734      3.24689373329270      1.36809932982467
  C   -2.28401591118379      3.91873053701853     -1.35692226251399
  O   0.13703360559547      0.90433207472925      2.68372562843272
  C   -2.19646957424438      2.43948935069267     -1.31955570314954
  O   -1.67545733121046      5.82457059911638      2.64776134250377
  C   -2.48707810313091      1.60217235861326     -2.53143369713243
  O   -2.01452622111472      5.86859737846236     -0.18515909085902
  O   -2.94288963920015      3.46709584268738      2.16525553086964
  O   -1.71555867676483      0.54118903057211     -0.15846510043204
  N   -0.25960467468266      2.21893069560600      2.81639993683570
  N   -0.77789436870144      4.69662654765308      2.63816825106992
  N   -1.93712217690289      4.49420606060567     -0.24097058482045
  N   -1.84628552819537      1.93115666478513     -0.16818882439611
  N   0.62937924509250      3.36118932582196      0.33331152709449
  C   1.19465475886751      2.43230033958169      4.82191462255789
  C   1.27063448035545      2.27037978386250     -0.13875132435986
  C   0.23649191490753      2.95431598985077      3.78391517611322
  C   2.51019619194952      2.34233371336887     -0.77929740553893
  C   -0.32350913384231      4.32057159626767      3.80840280850459
  C   3.11374273836432      3.59568334481190     -0.94056407809569
  C   -0.45124590679994      5.10330077965793      5.08129975283761
  C   2.45110457175314      4.72990237647605     -0.45590656542661
  C   -2.75262914533205      4.65296545377699     -2.58048261562494
  C   1.21419638902141      4.56702304151675      0.17213803523553
  H   -2.54100527760799      5.30522538542557      2.63232386824196
  H   -1.60132961973170      0.34001927911850      0.79665042940467
  H   0.75990652955231      1.59036765099589      5.38250239078889
  H   1.45310946686205      3.21121913054802      5.54375397971794
  H   2.13400469988320      2.09592440885820      4.35517887710612
  H   -1.03361812770188      6.00936690203952      4.89833346330972
  H   0.54228106620522      5.38916069663109      5.45552472003930
  H   -0.94096883427755      4.50194782626525      5.85905319780464
  H   -2.65189164193298      5.73090315270311     -2.43425640558124
  H   -3.80825857199748      4.42355986253864     -2.78393581830745
  H   -3.23238646188543      2.08453543575168     -3.17164827504618
  H   -2.84633490842480      0.61373896482670     -2.22964724657728
  H   -1.57041677296554      1.46239621255678     -3.12399838744618
  H   0.75961770505134      1.32052067863592     -0.00029640515896
  H   2.98547454317977      1.43504928835928     -1.14487009190064
  H   4.07764553283874      3.68697182571850     -1.43716885195981
  H   2.87798395866307      5.72413271786868     -0.56438226963937
  H   0.65751393993439      5.41839638497463      0.55596623898772
  H   -2.17021196257040      4.35294792571392     -3.46147514490676
  H   -1.82590895026403      6.05499925010428      0.77889940779249
  H   0.80340866943617      0.68836040153744      3.38119763380002
