50
Coordinates from ORCA-job CUKLUP-CH3OH_1_5_tpss_d4_lanl2dz_631gpol_Co3.opt
  Co  -0.69981979577902      3.26805447297872      1.09577950859563
  C   -2.29758208420429      3.58057783986670     -1.29502819825447
  O   0.11164847211837      0.85046672521191      2.73167121657351
  C   -2.10395351767258      2.16369770630856     -1.17603418214456
  O   -0.73129292196300      6.07913007787210      2.31123815030647
  C   -2.74841179589821      1.11767460010406     -2.04193175828393
  O   -1.85336970372526      5.70737118303456     -0.31091147827377
  O   -2.72014363526388      2.93172467297192      2.18493602939931
  O   -1.27355295242965      0.43665490801687      0.10910456778659
  N   0.12327714422472      2.29950084049813      2.66390476465654
  N   -0.53598608950114      4.72293542974638      2.49410793256354
  N   -1.75608451272503      4.26750594810347     -0.25840130555032
  N   -1.29631212763300      1.81697069457203     -0.15355742833150
  N   1.18476612270307      3.67906015649694      0.13083865935289
  C   0.06747687884638      2.21453103797003      5.17118509867553
  C   1.33906415285191      3.46911520551543     -1.19520093816324
  C   -0.00276993636648      2.91001216044402      3.84244842032361
  C   2.53436925947373      3.74407917238414     -1.86149119669603
  C   -0.23050211770112      4.34507601180772      3.72606796951254
  C   3.61287046804419      4.25507381226897     -1.12773770621294
  C   -0.16229345173994      5.31016244647561      4.87346928706465
  C   3.45614215343381      4.46907444596693      0.24739807091230
  C   -3.00862667554942      4.26755623045854     -2.42742493013527
  C   2.22719748161863      4.16738173890885      0.83715178165855
  H   -1.12421246791002      6.11232123402081      1.39286525156436
  H   -0.80703124751702      0.40516173606306      0.98448155349242
  H   0.25594416651084      1.14784430911725      5.02961199308788
  H   -0.87502962135064      2.33821008023572      5.72281438402697
  H   0.86781638129058      2.64344516921036      5.78954663713472
  H   -1.02165591317070      5.99105952284836      4.83476185423574
  H   0.74334055692694      5.93044535824473      4.80612892964611
  H   -0.15469525130843      4.79095300907820      5.83605062416042
  H   -3.50533437205864      5.17286151334505     -2.06008719010227
  H   -3.75628552445427      3.61466994160078     -2.88784036368296
  H   -3.30313010267094      1.56148868703612     -2.87291623478726
  H   -3.43903745548985      0.50003945884966     -1.45039077196650
  H   -1.98798449105257      0.43863687642361     -2.45004466785843
  H   0.47181260855679      3.06138150174031     -1.70978417659326
  H   2.61659721155419      3.55722702754640     -2.92949550079558
  H   4.55793842596006      4.47969243570889     -1.61787680524211
  H   4.26804374741183      4.86255228098959      0.85408337951566
  H   2.04774827003313      4.31230749369481      1.89981135194032
  H   -2.30536895301805      4.56860013548839     -3.22052846866700
  H   -1.22660396112847      5.99179473993697     -1.01608497768935
  H   0.98985916436709      0.61484186553647      2.35665340161150
  C   -3.28331532473416      1.61996717144230      2.44381506377399
  H   -2.65001498201749      1.16850601601621      3.21092028354684
  H   -4.30504889021754      1.72341018262255      2.82832917346281
  H   -3.27098275124777      0.99324335994271      1.54419246159593
  H   -3.27850003842759      3.38370137527762      1.51845047925335
