45
Coordinates from ORCA-job CUKLUP-oxo_1_1_tpss_d4_lanl2dz_631gpol_Co3.opt
  Co  -0.91423879283875      3.32584058727959      1.11613097190216
  C   -2.45713928938139      3.77744448608330     -1.18007949819188
  O   -0.11797959238504      0.75363613767755      2.58275512296726
  C   -2.14527602049083      2.34274217845034     -1.18114257621741
  O   -0.81273841341621      5.98386903281514      2.30086230086388
  C   -2.65485010678662      1.38701074944017     -2.21848873987444
  O   -2.08678326002916      5.84250760818021     -0.18251215663386
  O   -2.50870635612189      3.10017645940007      1.81535460059101
  O   -1.05942006911218      0.66293747403776     -0.04906064737453
  N   -0.02474426785479      2.20329346133329      2.55919523329344
  N   -0.64970125040699      4.62587454759586      2.48579559002427
  N   -1.65719141260966      4.47055561584725     -0.39277368932643
  N   -1.42437579231980      1.99096002048145     -0.14380213386113
  N   0.97262351389155      3.60473216877670      0.28570771141121
  C   -0.13601755284723      2.03743916951663      5.05844586032331
  C   1.62699953084058      2.58382951823368     -0.31285228870276
  C   -0.12783487456832      2.76351143041424      3.74848457680043
  C   2.89238988093543      2.73316768850003     -0.88325036502543
  C   -0.27572558230798      4.22287608772372      3.67603711489364
  C   3.51344104350498      3.98679257069669     -0.83551060854411
  C   -0.08889992506576      5.12895985437621      4.85651855227835
  C   2.83891133359996      5.04571085067880     -0.21626778230130
  C   -3.59438381678193      4.33588719611579     -1.97916403546301
  C   1.57509986415178      4.81478523747038      0.32939715336846
  H   -1.42921719929083      6.01958215325955      1.50994273167295
  H   -0.87772268026560      0.56100752942862      0.93240028906215
  H   0.10151278657457      0.98117106732198      4.91589011601890
  H   -1.13343161546972      2.11232337416364      5.51592343309789
  H   0.58271949258813      2.49012500849922      5.75369117910027
  H   -0.44586038647634      6.13380094566706      4.61790294588769
  H   0.97134646306382      5.18792206088339      5.14094939564656
  H   -0.64612229947453      4.74647901377067      5.72127398606906
  H   -3.59534203891834      5.42707871505078     -1.93870858257315
  H   -4.54771901492573      3.97058101799249     -1.57005884501391
  H   -3.72299628372670      1.55722737277234     -2.40237049143027
  H   -2.50905593499718      0.35727578475188     -1.88237754345908
  H   -2.12426879346354      1.52508309039248     -3.17155191227906
  H   1.10254050955261      1.63134042082840     -0.33725531380710
  H   3.37378128174182      1.88099936703038     -1.35696091156710
  H   4.49938281852477      4.13502080386181     -1.27066110968874
  H   3.28132578400527      6.03681110115204     -0.15058653710880
  H   1.01978649816180      5.60515941078633      0.82921916578915
  H   -3.53138181488282      4.00264100078497     -3.02315477188880
  H   -1.35633566656071      6.35750176636879     -0.59604602051334
  H   0.77669930263957      0.48002886410771      2.27515852978337
