50
Coordinates from ORCA-job CUKLUP-CH3OH_1_1_tpss_d4_lanl2dz_631gpol_Co3.opt
  Co  -0.68624690364147      3.35156878186318      0.98954615622413
  C   -2.25165659920166      3.76512899304111     -1.26600406665718
  O   0.05320688999301      0.84014814805486      2.35537712122374
  C   -2.05196327207069      2.34893041815456     -1.20775960618717
  O   -0.78287526653215      5.98953807549599      2.27076063691083
  C   -2.51952482629302      1.33357144318970     -2.20764203157023
  O   -1.80009050582931      5.79969001405980     -0.19429847653912
  O   -3.10050608937663      2.88375533523113      3.18365099532780
  O   -1.05565979054227      0.65239458026537     -0.06441252150787
  N   -0.17246237623238      2.26071234860985      2.42651780403179
  N   -0.62849231755352      4.61733229102602      2.38096494814565
  N   -1.68788739111256      4.36717766111834     -0.21244569597994
  N   -1.36994132411967      2.00247853243059     -0.10982225670509
  N   1.11199941564056      3.64955084484843      0.14428929204249
  C   0.28827009504934      2.03998515309014      4.88500185585479
  C   1.67256004310983      2.70148814172877     -0.64539520963943
  C   -0.03530268963403      2.79721362257729      3.63381746447582
  C   2.91109324841918      2.88240797191854     -1.26322740709623
  C   -0.28019327726591      4.21510786337195      3.59895209908266
  C   3.60064510749814      4.08485933064390     -1.06561739021089
  C   -0.20013977960812      5.14862411650581      4.76796760115497
  C   3.02112277912810      5.06525632529042     -0.25098089333653
  C   -2.98828429254272      4.50146446553542     -2.34625324715694
  C   1.78022451975849      4.81294479379481      0.33572855343204
  H   -1.24302949760869      6.09159867164099      1.38609716270051
  H   -0.71839724955538      0.53541784648386      0.87258918615648
  H   0.41440559733481      0.97581850504579      4.67433964335678
  H   -0.53829485669765      2.15681439999320      5.59950621443930
  H   1.19962629453781      2.42872570041932      5.35861058499376
  H   -1.15730621793195      5.67219283124672      4.88982460567346
  H   0.57305746173008      5.91242140745519      4.60868073221286
  H   0.02636638198844      4.60386784743846      5.68881331759697
  H   -3.45300673272266      5.40505395024367     -1.93847066057411
  H   -3.76738156650865      3.86827719750329     -2.78237352912368
  H   -3.15461669332526      1.79086320906387     -2.97145330175285
  H   -3.08234801478719      0.53753982279380     -1.70375938194087
  H   -1.66364843166415      0.85788513426116     -2.70650100896079
  H   1.10030766165080      1.78427639420576     -0.77045914412157
  H   3.32053437059324      2.09133900982098     -1.88685351053116
  H   4.56754666468140      4.25350071984337     -1.53455474761549
  H   3.51910281946241      6.01401645755900     -0.06585863180376
  H   1.29281109488271      5.54235677632156      0.97953783729493
  H   -2.31051025687918      4.79983711994724     -3.16111952524662
  H   -1.12976914077951      6.12235196381738     -0.84069145494999
  H   1.01638766439668      0.75221655381567      2.16628182813828
  C   -3.67132463755597      1.62356910987673      2.81782809501215
  H   -4.02392973256144      1.16028087117854      3.74459926540427
  H   -4.52899675485830      1.73856841637648      2.13504579154665
  H   -2.93113503371177      0.95470930405007      2.34692383858441
  H   -2.72336659115112      3.27292152775142      2.36375106818980
