50
Coordinates from ORCA-job CUKLUP-CH3OH_1_3_tpss_d4_lanl2dz_631gpol_Co3.opt
  Co  -0.80576170869747      3.30206240932021      1.13493298224960
  C   -2.37421836745846      3.66100434710196     -1.16058989135410
  O   -0.01521646737881      0.78097727713132      2.57351061252917
  C   -2.01452426710664      2.25791645742303     -1.16094064618762
  O   -0.69506105219081      6.01369596287658      2.30982933107040
  C   -2.33103398978270      1.28191632638712     -2.25536113364424
  O   -2.14645336134039      5.72322621552291     -0.03939760432304
  O   -2.83086731813947      2.93691377518133      2.32107842257840
  O   -0.89171602912441      0.60107176925655     -0.04233982423754
  N   0.01587577080019      2.24483075193738      2.54902402319134
  N   -0.59735645557369      4.63787833485439      2.49270365014844
  N   -1.68858854471545      4.34442303403905     -0.24172413606371
  N   -1.34556093902364      1.91606415934739     -0.06484584463818
  N   1.15087541968866      3.64177471119089      0.19955177985442
  C   0.21237309129186      2.08543666333760      5.05148465495029
  C   1.76773504000138      2.66306663531318     -0.49734332804159
  C   0.03585921550096      2.81254116476824      3.75111782310040
  C   3.01872268209489      2.83451761605230     -1.09586003003430
  C   -0.13432951562103      4.25431683148218      3.67292426375339
  C   3.66379965713022      4.07049238905118     -0.96791981836362
  C   0.18113475753244      5.21216339831225      4.78319175288212
  C   3.02905857183541      5.08809285435945     -0.24559907359490
  C   -3.38209013399721      4.25818427567909     -2.10033075562633
  C   1.77682576797806      4.83268782077493      0.31903709934123
  H   -1.27484564068761      6.06476929318871      1.49372637242550
  H   -0.61757160685020      0.50177827317914      0.91729203787368
  H   0.19619425072693      1.00522326912648      4.88849155402378
  H   -0.59282300587188      2.34965715873222      5.74991439690078
  H   1.16484340082980      2.36262028879551      5.52581808696013
  H   -0.55722878862861      6.02203371628639      4.80378910452337
  H   1.16897138856866      5.67208963975858      4.63148257541347
  H   0.18833461359845      4.70272024389588      5.75204420832352
  H   -3.71855944689820      5.22912768968107     -1.72562876975918
  H   -4.25170181281656      3.59926948901352     -2.21207327826721
  H   -3.07091508509598      1.68977787746754     -2.95084370402216
  H   -2.71042427160901      0.34433251152206     -1.83039687717087
  H   -1.42332519385476      1.03514271823418     -2.82507350099867
  H   1.22673252916054      1.72109849798973     -0.57191164127744
  H   3.47208890832166      2.01537528540196     -1.64947366964845
  H   4.63906340250665      4.23684464383477     -1.42088693204412
  H   3.49262157436952      6.06371483818535     -0.11796802497452
  H   1.24662512029193      5.59129722533825      0.89229898117552
  H   -2.94735066760498      4.40227958874413     -3.10111791251313
  H   -1.59271147762597      6.23932393850787     -0.66891841837782
  H   0.92758173038100      0.54018367338213      2.42323509036801
  C   -3.71040669048232      1.83134650975329      2.01548906073784
  H   -3.08837689393616      0.93426900601809      2.05537684774475
  H   -4.50711741491255      1.75702238693032      2.76684793834181
  H   -4.14816911512653      1.92753077550564      1.01250508746094
  H   -3.35003163045763      3.76366628082639      2.26889707724036
