46
Coordinates from ORCA-job CUKLUP-OH_1_4_tpss_d4_lanl2dz_631gpol_Co3.opt
  Co  -0.96229573985611      3.11746242926078      1.18931872667063
  C   -2.41656185004950      3.80207223220180     -1.27607875886437
  O   0.93673435442618      1.29384565901436      2.95331269605164
  C   -2.31438549521398      2.32470727775699     -1.37077126077967
  O   -1.77703810127122      5.82387103525402      2.50871236454056
  C   -3.05871005387929      1.56365234499941     -2.43017183351321
  O   -1.74866691483196      5.75664185792973     -0.28793683306575
  O   -2.66843414009723      2.63958488616860      1.75361257326536
  O   -1.42945809551399      0.39754096713353     -0.58359855440833
  N   0.12592388786025      2.42939459457980      2.87288622749065
  N   -0.94203418126067      4.71918827028182      2.59276627716538
  N   -1.55979497311985      4.34419042635112     -0.45506361964468
  N   -1.56027015906703      1.78376160557069     -0.45581257857575
  N   1.09031420470099      3.15014109163127      0.33410984136402
  C   0.96956434100395      2.81841638602663      5.16574471989582
  C   1.48459032554232      2.47268319792856     -0.76784902813924
  C   0.17311900454483      3.17990251441212      3.94383448949214
  C   2.74948232848139      2.63036930030688     -1.33913941862098
  C   -0.61485347575870      4.41509660790586      3.82826891392764
  C   3.64558914181597      3.53576347728631     -0.75832604592278
  C   -1.05935027213194      5.23318328214967      5.00718875112387
  C   3.24282519705431      4.24423631780948      0.38076582176127
  C   -3.45257968384665      4.55220614392390     -2.05839090681089
  C   1.96531439282740      4.01654505511536      0.89538401729790
  H   -1.99835055653228      5.85810169287137      1.53961682306449
  H   -1.22312332146644      0.11854308028932      0.33431364922503
  H   1.92883393806752      2.38164940484414      4.86436471289642
  H   0.44050038043051      2.05987915887119      5.76039801018370
  H   1.15114250933198      3.69328104089325      5.79659656521224
  H   -2.14379674207350      5.39479777627519      4.94969522316547
  H   -0.58947928120407      6.22631330862247      4.98859516145480
  H   -0.81960819437582      4.74261148674072      5.95427622581994
  H   -3.24164361562615      5.62371851819914     -2.04517301765937
  H   -4.44394012398816      4.38396295798823     -1.61196225055838
  H   -4.10028448814547      1.90368745965979     -2.48359839858990
  H   -3.03960664191479      0.49462699368099     -2.20672881557576
  H   -2.60322072961936      1.72478996733099     -3.41811471358736
  H   0.75638797733506      1.78236435286438     -1.18629598698023
  H   3.02132247866547      2.05324376586387     -2.21969139037811
  H   4.63672879226462      3.68406726757706     -1.18177348506180
  H   3.90530775733433      4.95617551601153      0.86722385315596
  H   1.60843287536373      4.52989586414000      1.78635301557638
  H   -3.48971643663791      4.19330482495848     -3.09380771488201
  H   -0.82175888081160      6.07414070485233     -0.19980513735812
  H   0.93146902855065      0.96556705325279      2.02934339898973
  H   -2.82024076730774      2.83471084321368      2.70116769018553
