46
Coordinates from ORCA-job CUKLUP-OH_1_6_tpss_d4_lanl2dz_631gpol_Co3.opt
  Co  -1.73560914133404      3.23606489707523      1.44261678152725
  C   -2.40358124162956      3.80169624348806     -1.32326167369131
  O   -0.35327441648084      0.79703264078147      2.58721012034238
  C   -2.21576445880535      2.33025477839767     -1.27057924394552
  O   -1.28804487642949      6.07465992872598      2.47958546002856
  C   -2.39976108884132      1.47499014513951     -2.49003585281427
  O   -2.26656266037120      5.78794057187594     -0.18451285848049
  O   -3.45703880164760      3.10789514398319      2.02673497311981
  O   -1.58141813319988      0.51495167447997     -0.01030986565637
  N   -0.66654085092858      2.18217544558733      2.74577419967655
  N   -1.08332108466068      4.66015267899651      2.67338208165093
  N   -2.15868627139206      4.41777800708037     -0.19845103969673
  N   -1.84748721922186      1.87121582120840     -0.10516966702319
  N   0.45553160569872      3.48695105391320      0.46134597420400
  C   0.99037341619628      2.21299916105059      4.62434967144124
  C   1.18299574319570      2.42346116439084      0.05915638622599
  C   0.06005407303226      2.89444167005075      3.66045121697053
  C   2.51400436467000      2.52764668034268     -0.35258636581744
  C   -0.17117835602191      4.29716707049799      3.61658320712050
  C   3.12164029015119      3.78940344885057     -0.35259899415440
  C   0.46861238175171      5.28749000339125      4.54985234547722
  C   2.36780213265994      4.89666059743118      0.05179721621250
  C   -2.82103926938323      4.49553275050003     -2.58712623859564
  C   1.04233519928109      4.70157743012774      0.45030650554684
  H   -2.08180426372468      6.27731181362530      3.02719366045431
  H   -1.25708325541373      0.42721124596434      0.92949869735437
  H   0.53057773023443      1.29257223611973      5.00743252917645
  H   1.22638754708989      2.86179560773712      5.47261271626038
  H   1.94679614669480      1.93770646621223      4.14815624264626
  H   0.44597198636400      6.28582706083643      4.10181708737280
  H   1.50941639583676      5.01917920287423      4.76217286483357
  H   -0.06868260755449      5.33441205388242      5.50969454216962
  H   -2.70170435902248      5.57656287909641     -2.48188185551519
  H   -3.87674645259263      4.28081449770987     -2.80776653037715
  H   -3.35453085386023      1.70336266122140     -2.98040670958916
  H   -2.37621088574918      0.41653023874843     -2.22046665661162
  H   -1.59908997184985      1.67089442148826     -3.21816423698369
  H   0.66749059636144      1.46554949005794      0.05611571377974
  H   3.05484636089992      1.63906779663254     -0.67025229126159
  H   4.15655814827442      3.90704551981674     -0.66707849382281
  H   2.79213141459212      5.89786654639938      0.05858165039871
  H   0.42437387636675      5.53664027243651      0.76758981587457
  H   -2.22582599192834      4.14537441147633     -3.43984577178943
  H   -1.98523264128480      6.01743516735251      0.74824806489836
  H   0.62934778492521      0.72490843676679      2.53678789519447
  H   -3.74664804094855      2.23568296617819      2.37320672586797
