94
Coordinates from ORCA-job BEFNEI-CH3OH_1_1_tpss_d4_lanl2dz_631gpol_Fe2.opt
  Fe  -4.42021862863009      9.50858978990732      0.28761165359732
  S   -1.91090993040611      8.16249877451595     -3.07009604923498
  C   -2.86479144308529      8.14668865103564     -1.74609867242366
  N   -3.55743973045042      8.12772141380832     -0.76562150509306
  O   -1.59322097798886      4.22868964754246      7.30072755712835
  N   -2.76779939237744      9.51325906210589      1.39021283275632
  N   -4.96280415547276      8.23277692254824      1.64003929852314
  N   -6.09690845208575      7.52855019471137      1.94245944885089
  N   -4.45510602776074      6.89095160229580      3.31307723207171
  N   -7.86246701741438      5.34478862713284      2.96641121898223
  C   -1.65227743010481     10.23799057366761      1.16431679886492
  H   -1.73387910760494     10.97788189441553      0.37214958518040
  C   -0.46391166740409     10.03307100268158      1.87168179859107
  H   0.40294593047418     10.64843318780474      1.64417007163664
  C   -0.40816284595281      9.03277234864013      2.84751252238006
  H   0.50720639424071      8.84357727357992      3.40379669513249
  C   -1.55107328138442      8.26810470044294      3.09450343032083
  H   -1.54661261352535      7.47549382719316      3.83541580142331
  C   -2.71078018820208      8.53479043967214      2.35673004788617
  C   -3.98354097187781      7.86632624007938      2.46969065673868
  C   -5.78559826437264      6.69924544912156      2.94909485928771
  C   -6.66873143332560      5.75067401157862      3.56875903532738
  C   -6.57545309101390      5.08961614063807      4.80416938063428
  H   -5.77296880587952      5.19787984610808      5.52082059843184
  C   -7.72342249290297      4.28448753571039      4.94607650485011
  H   -7.96903458736936      3.64493506236402      5.78459353246317
  C   -8.49161341923180      4.45845826520085      3.80106253603570
  H   -9.43482336531883      4.01448181936347      3.50791244853617
  C   -8.38293228723599      5.74354433073141      1.65790426189379
  H   -7.60566816730999      5.63949372922724      0.89452075573242
  H   -8.72701595728792      6.78355744596431      1.67926696953147
  H   -9.22128025064831      5.08283885421901      1.41815686838076
  C   -3.70587708141478      6.18841860042272      4.31933710038078
  C   -3.15836760577731      4.93765452846904      4.02180813322234
  H   -3.29660390889556      4.50832587185096      3.03209800191346
  C   -2.43842858753893      4.24317870058264      4.99951786493618
  H   -2.01756795767628      3.27132333347122      4.75937431790138
  C   -2.27074935411913      4.81170274069243      6.27811778367421
  C   -2.82650329061341      6.07789212570694      6.56582912400005
  H   -2.68403554114532      6.49435819699964      7.55976594261618
  C   -3.54432741104422      6.76310862460914      5.59069288198580
  H   -3.98453486547353      7.73429115641221      5.80715063238345
  C   -1.01362052948767      2.93266717545209      7.06997095068776
  H   -0.53530906093869      2.66148713856675      8.01324369572629
  H   -0.26411854222712      2.97751261429557      6.26784697037368
  H   -1.78967790505492      2.19700367622320      6.81871087039726
  O   -5.36193578046739     10.99583356977397      1.30028598478525
  O   -5.48355852320970     11.68390596991070     -8.54357010872061
  N   -5.97795177657561      9.35663886434478     -0.92096473386234
  N   -3.85497179230432     10.77194969189121     -1.08234746870060
  N   -2.72940926125423     11.50196169115777     -1.33499182798406
  N   -4.00504050704430     11.46894080782533     -3.16496519333989
  N   -0.44759889558881     12.56408758148419     -2.96329343271899
  C   -7.08060262797762      8.60907605338245     -0.71728114431452
  H   -7.13112405484972      8.11213580623536      0.24751689252225
  C   -8.07879488804670      8.46094291491481     -1.68483117919009
  H   -8.94695582407383      7.84371862886938     -1.46672354326855
  C   -7.93692480064998      9.10162638572599     -2.91988666424949
  H   -8.69275537888791      8.99573769916725     -3.69488905863318
  C   -6.80230068213484      9.88394052105755     -3.14783653440828
  H   -6.65218295690163     10.39679648472291     -4.09216931345999
  C   -5.84839463577399      9.99646898074661     -2.12929664530622
  C   -4.62239104029954     10.75625092435231     -2.17174119430605
  C   -2.80312975004614     11.89867271345514     -2.61345738947441
  C   -1.79091057863527     12.61412556808917     -3.33649128100083
  C   -1.88749110819258     13.44020953268285     -4.46536676901622
  H   -2.80203958202064     13.68849836670632     -4.98674019260239
  C   -0.58880854833076     13.89563673101972     -4.77188930813823
  H   -0.30471744266073     14.55425920802211     -5.58306991889910
  C   0.27375900091387     13.33468980498218     -3.83689850060247
  H   1.34896397975894     13.41091698868471     -3.73183212192869
  C   0.14327822843384     11.74353192324762     -1.90481557879741
  H   -0.09149597534203     12.16075300671179     -0.91888471704995
  H   -0.23850765905098     10.71815882215270     -1.97056275959716
  H   1.22772379942015     11.74021948083736     -2.05327778690471
  C   -4.41444809107924     11.55218922308338     -4.54247363246102
  C   -5.28607444909481     12.56452539160306     -4.95206591044832
  H   -5.65459447299507     13.29115793527097     -4.23020228845849
  C   -5.67541781536421     12.64324686452225     -6.29499534850768
  H   -6.34992057054967     13.43457234902368     -6.60937333763182
  C   -5.17917027707299     11.70035060627889     -7.21768663805007
  C   -4.30466631823864     10.68002928980354     -6.78552960437921
  H   -3.94098836940632      9.96264630889005     -7.51694576768690
  C   -3.92009759783616     10.60298100361793     -5.45124984215386
  H   -3.25229489159036      9.81924753282933     -5.09773813061923
  C   -6.35199145192955     12.71092244363330     -9.04684347061287
  H   -6.44673918788425     12.50810933175880    -10.11568981392754
  H   -7.34010496330831     12.65988009527659     -8.56764721109866
  H   -5.91332853525128     13.70674592096499     -8.89416806424302
  C   -4.56837476809199     12.10326084309291      1.80831908594061
  H   -5.24221599568849     12.86988394804178      2.20735357509419
  H   -3.86469687579963     11.76231622762318      2.57687853074302
  H   -4.02092507011032     12.48788688812464      0.94604041145700
  H   -5.84691593659827     10.57882992664184      2.04126650159436
