90
Coordinates from ORCA-job BEFNEI-OH_1_6_tpss_d4_lanl2dz_631gpol_Fe2.opt
  Fe  -4.58464899272074      9.80670807049993      0.51871372169633
  S   -4.03769913734299      7.25798726971077     -3.14534763229528
  C   -3.95875041328914      7.72159695090671     -1.58969763135333
  N   -3.92123313765034      8.10596037280391     -0.45165384384523
  O   -1.49449216707283      4.10879580221660      7.30404140823756
  N   -2.76576000973216      9.60686431935324      1.72489973165976
  N   -5.14290358347060      8.44254505780265      2.08901843488026
  N   -6.23286008332906      7.66831629746560      2.33148689480485
  N   -4.54023550239145      6.99674347790718      3.62316563833665
  N   -7.92127203442337      5.38806794584491      3.22786906265343
  C   -1.62697916219743     10.26852524680517      1.47297673833044
  H   -1.66462413798421     10.96636116141694      0.63753158074134
  C   -0.46445867367955     10.05219841870814      2.22210610620725
  H   0.44352343226364     10.60262651559432      1.98963076280146
  C   -0.50360368311331      9.11806567651305      3.26154104925185
  H   0.38046804833382      8.92575341998685      3.86574591732994
  C   -1.68857004798236      8.42295624379668      3.52652151783308
  H   -1.73697211939083      7.69542655615068      4.32914494004316
  C   -2.81318048759148      8.69046717841396      2.73176891989614
  C   -4.12311890171572      8.05546247489729      2.85014915819529
  C   -5.86987072058611      6.77433854421073      3.26580895874223
  C   -6.70249632334973      5.74101476095650      3.81459291219121
  C   -6.53394854446190      4.93193057531363      4.95084062579991
  H   -5.69814051456687      4.96474798285720      5.63566535704000
  C   -7.65941281241052      4.09030307043419      5.04745195160326
  H   -7.85141652869308      3.34705141872635      5.81112551965747
  C   -8.49045545396988      4.39063848341004      3.97421273976915
  H   -9.44296605968879      3.96903505499813      3.67811357081280
  C   -8.51362295664387      5.92928470568339      2.00265445442107
  H   -7.79743697725961      5.86923007682967      1.17703780101214
  H   -8.80379461494533      6.97504632451843      2.14582230898877
  H   -9.39606125110563      5.32675201033977      1.76817970764960
  C   -3.74743035025669      6.23690856764731      4.55156107942424
  C   -3.10761726203168      5.07379562439824      4.11541469748062
  H   -3.21387170624962      4.75313650412835      3.08149437647376
  C   -2.33748801616758      4.32617454470785      5.01239900214139
  H   -1.84446627689463      3.42286989270658      4.66534329827484
  C   -2.21446448486820      4.75314404319803      6.34979899397073
  C   -2.86635853444029      5.93098394598957      6.77829368531129
  H   -2.75815039756866      6.23747033949347      7.81563829450611
  C   -3.63353749635059      6.66985059246932      5.88302755890530
  H   -4.14687857683375      7.57315687720433      6.20603721641389
  C   -0.82512303884486      2.89062452130467      6.93398754067614
  H   -0.32983635240819      2.54924587304617      7.84505132196011
  H   -0.07879045075521      3.07722353816602      6.14935076756298
  H   -1.54774505286548      2.13580171436055      6.59461357132403
  O   -5.29478374344090     11.25936617986096      1.40344866246208
  O   -5.62830005782321     11.81621603799394     -8.57440097186040
  N   -6.20225414359469      9.67583204400372     -0.95242232717733
  N   -3.85569344453806     10.92061609809948     -1.13829777358940
  N   -2.68268102431280     11.53895147894887     -1.43598809099935
  N   -3.96758013719173     11.46579750461514     -3.25864747502359
  N   -0.66415997010448     13.21797129581168     -2.85047720550672
  C   -7.35430436174940      9.02210505698547     -0.74314709680707
  H   -7.47290989457953      8.58342360509633      0.24643533788761
  C   -8.32941651323883      8.90433384737592     -1.73851119319253
  H   -9.25227810490732      8.36635402469464     -1.53750531279982
  C   -8.08759971334116      9.49607961380330     -2.98315711792251
  H   -8.82646325444378      9.43017604513200     -3.77872860651441
  C   -6.88330427735746     10.16807273358563     -3.21011500461676
  H   -6.67364227710684     10.62396730319427     -4.17116730649007
  C   -5.94638482983840     10.23112515937063     -2.16803626965229
  C   -4.63163153513152     10.86421704901053     -2.21987627180326
  C   -2.74345647481420     11.87629307376798     -2.73342745054291
  C   -1.72203890434670     12.55639221479017     -3.47998356757621
  C   -1.53358031713096     12.68611056305801     -4.86581297964973
  H   -2.16945860285202     12.26802933644340     -5.63356882702876
  C   -0.35323376807380     13.42865025288556     -5.06898873081247
  H   0.08397108085292     13.70596074383639     -6.02003984987151
  C   0.15522646368920     13.74393379611693     -3.81453684878513
  H   1.03477769999331     14.30734400553684     -3.52861152762894
  C   -0.43160104944281     13.36809548234465     -1.41307915768012
  H   -1.34245758882081     13.71195624297708     -0.91452785678811
  H   -0.12556653075889     12.41359099522416     -0.97119666767264
  H   0.36273221689798     14.10860196772498     -1.28103768117537
  C   -4.41703207178973     11.58387935854683     -4.61973563556153
  C   -4.95655360260632     12.79224740614581     -5.06742911038521
  H   -5.04001926281495     13.63590901712379     -4.38587219107823
  C   -5.37815716295043     12.91242641662726     -6.39606100802581
  H   -5.79419327203822     13.85512874851355     -6.73914110455760
  C   -5.25328046661930     11.81213632259227     -7.26799130357050
  C   -4.70832183651628     10.59617030882516     -6.79950177564644
  H   -4.62387949109336      9.76242956440643     -7.49201317173860
  C   -4.28624341727459     10.48061183388826     -5.47901011423667
  H   -3.86619563204505      9.55008872440941     -5.10237553710629
  C   -6.17112292695342     13.03322932968908     -9.11330258689206
  H   -6.38618992600719     12.81136695394291    -10.16051510585021
  H   -7.09733191466706     13.31373942731954     -8.59236035716960
  H   -5.44006234284196     13.85084438959293     -9.04591314030359
  H   -5.94011206757793     11.13680040219396      2.12790752342208
