89
Coordinates from ORCA-job BEFNEI-oxo_1_1_tpss_d4_lanl2dz_631gpol_Fe2.opt
  Fe  -4.40752048606948      9.56229811222570      0.35190526163443
  S   -3.66666704584729      7.18866053509488     -3.36946332804149
  C   -3.67200125637804      7.63190869537020     -1.80608638002890
  N   -3.68503269230380      7.98122388946432     -0.65714358703824
  O   -1.71104005547578      4.40673821011109      7.51089374207996
  N   -2.73537200046380      9.51155040759750      1.45390878094766
  N   -4.97831143221137      8.27642302545004      1.71956615316019
  N   -6.09538843787214      7.55329583695906      1.96293215107275
  N   -4.50091849707651      6.96543825400637      3.40869043548565
  N   -7.91097598656528      5.41930327973447      2.97986240762050
  C   -1.63667180159285     10.24979845913491      1.23503147177084
  H   -1.69255092056648     10.93532887872799      0.39357797652336
  C   -0.48900682611595     10.11673324724662      2.02478423368452
  H   0.37997235708608     10.73421539085206      1.81286119124876
  C   -0.48259915610819      9.18682359269698      3.06764697283679
  H   0.39791179822183      9.05800217400292      3.69318631841866
  C   -1.62596118298578      8.41828943606379      3.30529742574737
  H   -1.65816901497273      7.68974576510660      4.10827815266797
  C   -2.74211391529369      8.61081758917917      2.48257889264822
  C   -4.02000596595966      7.94218284913435      2.57578760703101
  C   -5.81218760382601      6.73892784661198      2.99284109532146
  C   -6.70092676057756      5.77865622889402      3.58094200769556
  C   -6.59472069170411      5.05070446255332      4.77850543292965
  H   -5.77955308262571      5.10775040195113      5.48615435484312
  C   -7.74841048237946      4.25202962640473      4.89709098941238
  H   -7.98728307152056      3.57136138932879      5.70459959527597
  C   -8.53533077185600      4.49790502705897      3.77763099130831
  H   -9.49215833636299      4.08568293577656      3.48207903390295
  C   -8.45937304351219      5.90352218190548      1.71182743793061
  H   -7.72147187157713      5.79322609188361      0.91117586083267
  H   -8.74402156928626      6.95812911548404      1.79528057098928
  H   -9.34301572317748      5.30112792060845      1.48181490140010
  C   -3.77024237754506      6.29018429378833      4.44729748064887
  C   -3.14967675970712      5.06986792460440      4.16628074602352
  H   -3.22147207367653      4.64239305488290      3.16859769763437
  C   -2.44535667963443      4.40108783189633      5.17257084396178
  H   -1.96845775015592      3.45204922750863      4.94599556840103
  C   -2.36655017930326      4.96561564892440      6.46175684856273
  C   -2.99649379677264      6.20114181521047      6.73154713364840
  H   -2.92310846700114      6.61462513095461      7.73425753307956
  C   -3.69968261855633      6.86122097329638      5.72863684054311
  H   -4.19692765991842      7.80774536563290      5.93035022928447
  C   -1.06315267206023      3.13926005322700      7.30180187487587
  H   -0.61645680676951      2.88499732365473      8.26493728645591
  H   -0.27991875599568      3.22251716007041      6.53559168651223
  H   -1.79332430563101      2.37105297391985      7.01236085250396
  O   -5.01749880674134     10.87058705968942      1.15652303387129
  O   -5.83684857957369     12.00650386242548     -8.41240014518472
  N   -5.99706208148900      9.44386000266665     -0.85796535335686
  N   -3.74586922700612     10.64345028650440     -1.14319669367955
  N   -2.60549921855749     11.31944228574815     -1.41791820644302
  N   -3.93324949549874     11.34188806091843     -3.21071182664422
  N   -0.65152393960100     13.13195118944166     -2.76513981007765
  C   -7.16054183417171      8.84484812252106     -0.55666026074728
  H   -7.22259883465039      8.41367330461175      0.43830271703013
  C   -8.20834240446366      8.76394978419969     -1.47907910026399
  H   -9.13399827437511      8.27081683542279     -1.19385036340089
  C   -8.04424395253054      9.32126169359263     -2.75071099885755
  H   -8.84075552877779      9.26646431706931     -3.48927330501376
  C   -6.84095350061561      9.95513027781217     -3.06796407706775
  H   -6.67649290188716     10.39952077018876     -4.04346336420344
  C   -5.83602960786425     10.00481436488063     -2.09499783405204
  C   -4.54653547488867     10.64731470788089     -2.20369953662229
  C   -2.70899274913213     11.74906969677194     -2.68638081449538
  C   -1.72608002781519     12.50830403359793     -3.40543695939129
  C   -1.59965458771139     12.76107359873751     -4.78141092805692
  H   -2.26251730373331     12.39959519128235     -5.55503944441416
  C   -0.44043497488544     13.53965685644362     -4.96804888361745
  H   -0.04865781817548     13.90616723504705     -5.90863841238671
  C   0.11760796312136     13.75380129444599     -3.71327934035987
  H   1.00150308528546     14.30486821873560     -3.41681592648782
  C   -0.35470995438460     13.15575636867274     -1.33249581423196
  H   -1.24145850497252     13.45414300037329     -0.76512610346166
  H   -0.02772258348811     12.16692342582001     -0.99173227157237
  H   0.44585270146835     13.88351169057460     -1.17113963324320
  C   -4.44331722609593     11.54119983991397     -4.54092729411111
  C   -5.02280420486134     12.76574245229029     -4.88260399963201
  H   -5.08812960203256     13.56183760163838     -4.14416482416517
  C   -5.50595112545398     12.96352420625891     -6.18034129590038
  H   -5.95265290717560     13.91828276702626     -6.44202937665601
  C   -5.40395126376532     11.92400754550244     -7.12708711980986
  C   -4.82101322158393     10.68983472688040     -6.76350424284092
  H   -4.75574067453447      9.90411032929735     -7.51200049452821
  C   -4.33651741443250     10.49677817793626     -5.47361121486804
  H   -3.88329431853776      9.55252001429502     -5.17715049061405
  C   -6.41794238427845     13.24722751792158     -8.84762998936359
  H   -6.67322366306530     13.09043981501351     -9.89756669713307
  H   -7.32563883816386     13.47832797374123     -8.27257072940120
  H   -5.69571830921950     14.07035986201516     -8.75638334799195
