88
Coordinates from ORCA-job BEFNEI_1_5_tpss_d4_lanl2dz_631gpol_Fe2.opt
  Fe  -3.92967214523284      8.51439145654042     -0.38912293638301
  S   -3.76262767328777      7.28128847946005     -4.54912117537570
  C   -3.52827876984553      7.27758032597428     -2.95032495250443
  N   -3.36097486654197      7.28329519426651     -1.75402716580921
  O   -2.21614445408479      5.37401485073995      8.29550885070090
  N   -2.37201815132399      8.79536007368611      1.10651862199561
  N   -4.68926711681611      7.57640999472532      1.33611884253822
  N   -5.82633443764163      6.87347068626819      1.61912310948996
  N   -4.42710538610598      6.73969900829395      3.35356436656013
  N   -7.68943837003623      4.91899901326063      2.88831395387184
  C   -1.21282462653624      9.43276602191917      0.86778247635567
  H   -1.15337100183569      9.94252647452601     -0.09244954850776
  C   -0.16731309530434      9.45334191898434      1.79902242002341
  H   0.75775973270291      9.97502109852750      1.56710213765237
  C   -0.34360207375173      8.79589866582562      3.02052453190261
  H   0.44706065213603      8.79415386956796      3.76791763967299
  C   -1.54919046121437      8.13481013077237      3.28385057794726
  H   -1.70715648129306      7.61962467842294      4.22514129267658
  C   -2.54539397229386      8.15150915673646      2.29803889948032
  C   -3.85038235920018      7.50243557945988      2.36858113467892
  C   -5.66895017186891      6.35301554360038      2.84420789517117
  C   -6.60953036055932      5.52042008656045      3.54090509409993
  C   -6.68510944694996      5.16059397744457      4.89681609298219
  H   -6.00355908990831      5.47500126911674      5.67500390636668
  C   -7.81942831073931      4.34075409957962      5.05923616757666
  H   -8.17125526153360      3.89307595475811      5.98029087559835
  C   -8.41230560006389      4.20770162152893      3.80907289619951
  H   -9.29128134190949      3.65658248210449      3.49856676422780
  C   -8.02473368365463      4.98454694820981      1.46407616907375
  H   -7.14472401156600      4.75664989936071      0.85592447411164
  H   -8.38858999509018      5.98338650962821      1.20001425221440
  H   -8.80658100106109      4.24373011215604      1.27342695362717
  C   -3.84487800686113      6.36855983818097      4.61478907293568
  C   -3.21202849554296      5.12872477559736      4.73931534090243
  H   -3.16432773151336      4.45722148773820      3.88497663661612
  C   -2.64971310277787      4.75391028754151      5.96384145550612
  H   -2.16206056806313      3.78745811674661      6.05098540904950
  C   -2.72620302809541      5.63179411985348      7.06362321395092
  C   -3.36848211326260      6.88240560877551      6.92517308437609
  H   -3.41759616331367      7.54048049570793      7.78904134755514
  C   -3.93020859859536      7.24878415944235      5.70592539941448
  H   -4.43545968354004      8.20578461028216      5.59356465672663
  C   -1.56248283633838      4.10934455577272      8.50183448396214
  H   -1.24247439866857      4.12056065933534      9.54555155186707
  H   -0.68871268807056      4.00908639540825      7.84308832982618
  H   -2.25945708656533      3.27712348697122      8.33231729221891
  O   -6.28155989455816     13.04219982976675     -8.08795828490990
  N   -5.84714008177226      8.99046678927563     -1.29548894780691
  N   -3.52867728043917     10.30330637641131     -1.43429276765188
  N   -2.38796390098117     10.99508260188632     -1.73365095411971
  N   -3.91330501079416     11.37942029441431     -3.31513016867913
  N   -0.47771357966547     12.90083434118429     -2.98747926985313
  C   -6.99806102098453      8.32342369809974     -1.10541148175073
  H   -6.99653825840314      7.62923523778940     -0.26674116347726
  C   -8.11386242318195      8.50861837366285     -1.92964218048554
  H   -9.02517695687637      7.94427483818891     -1.74861639993521
  C   -8.02300844931576      9.42479128459533     -2.98192016735385
  H   -8.86951794722583      9.59335740260949     -3.64416913495974
  C   -6.83210834176847     10.12973921454486     -3.18595965448427
  H   -6.74307187534616     10.84593811765589     -3.99513115367763
  C   -5.75529813585388      9.88472998291032     -2.32231959683389
  C   -4.44232129432033     10.52511209140594     -2.38082387005223
  C   -2.61595307121098     11.65132096600767     -2.87996897679916
  C   -1.68499146624288     12.50185199210621     -3.56969214956010
  C   -1.73088237607121     13.05818773234029     -4.85889041252235
  H   -2.52563251432856     12.92608470760899     -5.57899269225108
  C   -0.54457793660453     13.79385886125074     -5.05124884739257
  H   -0.25935520374366     14.34520165364095     -5.93849773365486
  C   0.20284204590520     13.68065123950240     -3.88557219806683
  H   1.16714229692625     14.09586721559005     -3.62010556848014
  C   0.02736342517831     12.57079130923637     -1.65426928113929
  H   0.27131132405811     11.50492439927952     -1.58927160097330
  H   0.92889508122851     13.16742716755060     -1.48590946651141
  H   -0.72125789841761     12.80940010491668     -0.89304308115250
  C   -4.54175924711916     11.83206102657752     -4.52708907102570
  C   -5.14415592442052     13.09213853217072     -4.56530248018433
  H   -5.13872166805869     13.72439939019088     -3.68002103792081
  C   -5.74357001089164     13.53879389918397     -5.74822947376724
  H   -6.20766257266552     14.52045298525424     -5.77201481795727
  C   -5.73181366351064     12.71155260596090     -6.88951848239607
  C   -5.12067210450941     11.43967477906259     -6.83444436636931
  H   -5.12573243610046     10.82040665268459     -7.72791748256132
  C   -4.52309095421460     10.99957944405941     -5.65785350848856
  H   -4.04911131954962     10.02173008357754     -5.60088748337415
  C   -6.90297024400822     14.33228230010282     -8.20857855632977
  H   -7.26022554382354     14.38235594416574     -9.23914752837108
  H   -7.75000506765905     14.42635333305941     -7.51442501007738
  H   -6.17628066503748     15.13592742115595     -8.02490538976570
