74
Coordinates from ORCA-job BARLAJ-OH_2_2_tpss_d4_lanl2dz_631gpol_Mn3.opt
  Mn  2.23762134690198     11.30647704491491      3.28285071023016
  O   1.84890051883441     13.01906209372272      3.63367005031170
  O   0.72565402279849     10.56907434561709      4.03450825532936
  C   -0.82135813219783      9.15707654369964      5.14977774888159
  C   -1.15536835766640      7.83831911346915      5.47371230326456
  H   -2.04002977242046      7.67425137258696      6.07825228417141
  C   0.36663860559864      9.35137655278868      4.35547902539679
  C   -1.66055781795782     10.34850911012044      5.62271887148393
  C   2.30430720678008      8.35317259805451      3.07757460685669
  H   2.75333141155122      7.42667990155531      2.70269697445979
  C   -0.82159801437726      5.27829395205533      5.43610609901905
  C   -0.41765296108362      6.70057113012035      5.06375217487115
  C   0.73069522280644      6.92089628148232      4.27117488185073
  H   1.31700234566890      6.07221794227898      3.92164047647491
  C   1.14273663813956      8.21102939707477      3.91907813433873
  C   -0.79381516772108     11.27660590046014      6.52126854398076
  H   -0.43025751263480     10.73309742960530      7.40392015938336
  H   -1.40985471363779     12.11361977784823      6.87388418267557
  H   0.06616803856304     11.68541301478065      5.97885750952124
  C   -2.08297686510264      5.23165852523600      6.32136530120445
  H   -2.31809663381358      4.18707252456920      6.55737265947689
  H   -2.95794297068645      5.65777961822079      5.81155891153739
  H   -1.93500644420122      5.75931581508928      7.27365908019764
  C   4.82935607878778     10.71628977069956      2.15034595015200
  H   5.37713500998505     10.45718645160064      3.06260647961983
  H   5.55340181999134     10.96846074708114      1.36553544207759
  C   -2.88112108431518      9.89444343935190      6.45271055465441
  H   -3.55957866789585      9.25483750165132      5.87197575532342
  H   -3.44818861541080     10.78082735748849      6.76138680342729
  H   -2.58430067994679      9.36014884677218      7.36552023980934
  C   -1.09745332256402      4.48460968375783      4.12565111408967
  H   -1.37189163920949      3.45379050462984      4.38253306053014
  H   -0.21423289348283      4.44385019365285      3.47423594278292
  H   -1.92556547508993      4.93296098447407      3.56218679482872
  C   0.35490030622778      4.60709229576620      6.20140362254515
  H   0.57716943979556      5.14414450511156      7.13262953501594
  H   1.27094210402528      4.56384956625862      5.59719144345855
  H   0.07573555892802      3.57702225686733      6.45603678723030
  C   3.93634043632826      9.54174297282745      1.74806863494384
  H   3.50443767956044      9.69595639066645      0.74965330819598
  H   4.50984285878660      8.60549441234472      1.73351081217543
  C   -2.19237914696028     11.13957542162131      4.39354000773958
  H   -1.37777842346479     11.56552060122288      3.79694260452989
  H   -2.82846367830128     11.96219857808646      4.74410904722257
  H   -2.80335251880773     10.49308372943308      3.74939272364964
  N   2.83278804731630      9.49010675484264      2.72087689343538
  N   3.37100095357123     11.21201260010078      4.94710977406481
  N   1.55734733799075     11.50203855208329      1.41194801773989
  N   3.98747355533337     11.92795477223452      2.47875060121904
  C   2.40875053921533     12.18116037237913      0.59614737364357
  C   3.10933292441485     10.53150796303579      6.08327874101437
  H   2.19773839680160      9.94292360810159      6.09335552432818
  C   4.65123582124975     12.73455044157705      3.56353043852988
  H   4.11199713720160     13.68643979360155      3.63123639702793
  H   5.70481496567306     12.92640718192926      3.32077030162866
  C   4.49345251988260     11.98025953796988      4.86326229861684
  C   0.39886989351121     11.00937899876867      0.92084159329348
  H   -0.23136228054512     10.48040299797084      1.62932311583138
  C   3.62980825186437     12.75706166603713      1.27696802003559
  H   3.37702326727249     13.75838243027519      1.64673429165655
  H   4.48344438126220     12.84054237423758      0.59185202039624
  C   2.11277547917496     12.37761406318066     -0.75382399068604
  H   2.80885399439405     12.91906972745907     -1.39024367007935
  C   3.95691544480054     10.59332906443014      7.18949475216186
  H   3.71004274885650     10.03776242866244      8.09015878549201
  C   0.03708656996142     11.18491720212896     -0.41435308284111
  H   -0.90663458475615     10.78506991831932     -0.77539940692431
  C   0.90838669371088     11.87722391992349     -1.26515206260252
  H   0.65628052853182     12.02467004323450     -2.31277210266759
  C   5.38818802506579     12.07618311226313      5.92915108904216
  H   6.27986351328223     12.69155605549921      5.83540729821876
  C   5.11354990446810     11.37813340950393      7.11258884148022
  H   5.79471086618451     11.44423824215074      7.95780791132407
  H   0.94459996320064     13.15525657138197      3.98854462669960
