78
Coordinates from ORCA-job BARLAJ-CH3OH_2_5_tpss_d4_lanl2dz_631gpol_Mn3.opt
  Mn  2.19927703970651     11.07263691604960      3.35976997925804
  O   1.62105095195296     13.12255067742396      3.61053376585779
  O   0.69864964857690     10.38360396622119      4.08271501956893
  C   -0.81150977929580      8.90417241340824      5.20027511391641
  C   -1.17280785205123      7.56492654946182      5.43999011180599
  H   -2.04615486532192      7.39139311521773      6.05877757956379
  C   0.32484360816460      9.12061453080208      4.38243008783989
  C   -1.61220929831662     10.06931341505726      5.80751455227491
  C   2.19268006757035      8.16125566429008      3.01721926013135
  H   2.62415108637781      7.24710600511155      2.59516743971435
  C   -0.92661174731286      4.99442339502950      5.24626148544662
  C   -0.49110331339045      6.43401327127233      4.93836026768156
  C   0.62220668330158      6.68146619466689      4.13799682574358
  H   1.19397949213213      5.85508116691817      3.71741565578184
  C   1.04696485049620      8.00251024038163      3.85255925110160
  C   -0.69710151611709     10.85482351366024      6.78326947363614
  H   -0.37047402297395     10.21094722991660      7.61125389415345
  H   -1.24903768336477     11.70123770973794      7.21426006456154
  H   0.19149448777038     11.24551484255071      6.27353477433352
  C   -2.18810094370867      4.94417242963116      6.13205960448155
  H   -2.45727749098179      3.89740186097057      6.31847880033727
  H   -3.04947960887588      5.42413382894140      5.64663293015231
  H   -2.02272201754798      5.41980407418021      7.10900047983157
  C   4.80823514420924     10.48813232443273      2.20580891721803
  H   5.28232376369876     10.20912072085697      3.15326705857258
  H   5.59218095515448     10.70265522994257      1.46721122288347
  C   -2.83768512012532      9.57579868131142      6.60813850490346
  H   -3.54468760968559      9.02237710732100      5.97552942456579
  H   -3.36936183478558     10.44476079855552      7.01560689436988
  H   -2.55030551348313      8.93970077434309      7.45610297933372
  C   -1.22572762342111      4.26328690513111      3.91207453837193
  H   -1.52643268562214      3.22782746540684      4.11665013782820
  H   -0.34349883891764      4.23082573980254      3.25792992192074
  H   -2.04103084848383      4.75616308682722      3.36608445553040
  C   0.22953667693569      4.27137508030497      5.98536214355981
  H   0.46343073284259      4.77010388270912      6.93551037507653
  H   1.14513443977458      4.24024055044736      5.37856669533275
  H   -0.05991159812295      3.23559573773519      6.20451694778883
  C   3.88869991726195      9.35566263595225      1.75291971553419
  H   3.48788832248796      9.54449612113321      0.74782696931263
  H   4.43665633463540      8.40409508142221      1.72969480903759
  C   -2.13602519907260     11.00539702558104      4.68698652959370
  H   -1.31470379287344     11.44957845253313      4.11247576975865
  H   -2.72810379868808     11.81614027714894      5.13245987545882
  H   -2.78726615483346     10.45508773665727      3.99476133110114
  N   2.77120365122469      9.29980243170334      2.71297401931121
  N   3.49095449861375     11.31187176711571      5.11069675715794
  N   1.50931193238208     11.53778165616905      1.26821743197796
  N   4.00153818377083     11.73926382390440      2.47487483654868
  C   2.52703408569140     11.95339931985658      0.47214904207241
  C   3.31884848786616     10.73129063205428      6.31932515421522
  H   2.37528150147819     10.21208274538799      6.46914805289289
  C   4.71583730495184     12.60593954001053      3.47755338405211
  H   4.18909003723361     13.56809041365725      3.49763747323778
  H   5.75244443566015     12.78456475044683      3.16025596154619
  C   4.65171127357046     11.96594926298637      4.84670231957473
  C   0.38318511897639     11.05147996157268      0.69893580043005
  H   -0.38841735317708     10.71463086762609      1.38822180330656
  C   3.71432138242418     12.52060970949569      1.22055906995112
  H   3.47680105091555     13.54497649648120      1.53576936030753
  H   4.61096394994836     12.56297694327785      0.58790088301226
  C   2.44473976574870     11.90673733473145     -0.92111234254383
  H   3.27693043768075     12.24529508142048     -1.53452729938104
  C   4.29075631353226     10.79979592243794      7.31978646581426
  H   4.11400087905437     10.32793159352610      8.28271977443357
  C   0.21981517848904     10.98518667391597     -0.68645249360843
  H   -0.70459831690267     10.59938804302503     -1.10825375596638
  C   1.26772659194930     11.42005216380864     -1.50837190616733
  H   1.17503604760508     11.37598202068329     -2.59125618760207
  C   5.67416020046914     12.06495409344692      5.79154515236859
  H   6.59610456501924     12.59010004620832      5.55175443618067
  C   5.48591779726751     11.47853131238520      7.05154951634075
  H   6.26548627319428     11.54476267218911      7.80719137215411
  C   1.14126202639706     13.71289059338891      4.86611844074861
  H   0.16413473490005     13.29659478337968      5.12563950397204
  H   1.88315561419514     13.44481159640112      5.61913113600850
  H   1.09212142575536     14.79935359742198      4.74608628445699
  H   0.97202747843847     13.31065772342650      2.89966891896916
