73
Coordinates from ORCA-job BARLAJ-oxo_2_3_tpss_d4_lanl2dz_631gpol_Mn3.opt
  Mn  2.12050741549874     11.38470868923477      3.28166187292173
  O   1.86766657051030     12.94120984994623      3.62348715915350
  O   0.66884288923211     10.53676918021325      3.89080974225735
  C   -0.82082480385402      9.14109988147093      5.09971443026113
  C   -1.11644995287255      7.82525206776314      5.48765757072326
  H   -1.99042200973322      7.66983397206914      6.11004331629686
  C   0.35055418526771      9.31633529039884      4.29570055622632
  C   -1.68285055689019     10.33483945731327      5.52501965091199
  C   2.28602727744943      8.35292596063725      3.02888445555230
  H   2.74821952972111      7.43373788686513      2.65028383268929
  C   -0.73239162021880      5.27369721512314      5.54674649633747
  C   -0.35830403610187      6.69082127252685      5.11965483598215
  C   0.77901377891030      6.90528661978712      4.31219114413569
  H   1.38486365784787      6.05960498783326      3.99002322727656
  C   1.15394092160152      8.19249023364743      3.90758544573397
  C   -0.82448851592487     11.33986173345486      6.34346546313440
  H   -0.39580593049314     10.85592326831583      7.23224700996609
  H   -1.46387402612089     12.16275081300218      6.68731937417580
  H   -0.01535329455429     11.77230441178269      5.74253767955020
  C   -1.98430710598778      5.23842352905631      6.44582450876443
  H   -2.20049045118947      4.19942991012589      6.72141984426640
  H   -2.87082279487360      5.63214419814117      5.92990587766678
  H   -1.83593609908359      5.80276895776001      7.37686997886749
  C   4.75829726428708     10.68516101190600      2.11608429161520
  H   5.28465894618659     10.36688643985442      3.02212818928266
  H   5.49687257246014     10.96518152642679      1.35506566591833
  C   -2.87018252966481      9.89039732639195      6.40705578908070
  H   -3.54329763177170      9.20449461012355      5.87501357007063
  H   -3.45443727745726     10.77546290663986      6.68534006913568
  H   -2.53608318768172      9.40987067468848      7.33673426101438
  C   -1.00849314026487      4.43132858890274      4.26800202306887
  H   -1.26103732722380      3.40429099224245      4.56021294785668
  H   -0.13154251442297      4.38577685486643      3.60833506170953
  H   -1.85051889773156      4.84556205841298      3.69894537733733
  C   0.46170685771789      4.64983147370991      6.32229367486560
  H   0.68581616492764      5.22364609463134      7.23106195590264
  H   1.37167636480145      4.59983703831264      5.70924020378611
  H   0.20391943972816      3.62511370494599      6.61776596742918
  C   3.83596595841710      9.56270911636094      1.65147619336237
  H   3.39961827104787      9.78716267764323      0.66869660896700
  H   4.38621824760256      8.61518914592873      1.57520015643949
  C   -2.25760708348408     11.04070967735309      4.26490737906602
  H   -1.46488619607249     11.48962515792770      3.65524313625933
  H   -2.93471536478945     11.84428791397350      4.58090374716032
  H   -2.83275443103709     10.33595301608472      3.64958613458182
  N   2.75775695067103      9.50071849448502      2.63977901530555
  N   3.25405598534062     11.17700406824956      4.94020604510154
  N   1.50704368903581     11.62068331473795      1.38885275311804
  N   3.94042046975074     11.89805450607316      2.49011729571182
  C   2.39827323995429     12.27418052260002      0.59681357981782
  C   2.93153514515141     10.49643205877977      6.05959268174669
  H   1.97979560461563      9.97548626713911      6.05395786779172
  C   4.63527224821772     12.64329286447109      3.60270200581716
  H   4.15547840691879     13.62619701931044      3.68781602588980
  H   5.69905047175698     12.77824370009357      3.36728119149490
  C   4.42617227149249     11.86829323718401      4.88054973887624
  C   0.33563515899962     11.18484872070690      0.87799569885442
  H   -0.32688516485795     10.67642476917765      1.57122571215655
  C   3.62406188781283     12.78685565498490      1.31406012443529
  H   3.40097843089835     13.78176897080697      1.71958415694464
  H   4.49385831587720     12.86382870514337      0.64967729649212
  C   2.13494698247703     12.49921049082380     -0.75453442370141
  H   2.86313704016942     13.01902458715983     -1.37266965037547
  C   3.77271788975554     10.47840432612012      7.17304054564143
  H   3.47582727467538      9.92772257673514      8.06144994045983
  C   0.00450976815775     11.39329197753170     -0.46115591473005
  H   -0.95047595717513     11.04007115709656     -0.84058606006521
  C   0.91773372667793     12.05654520083368     -1.28989094523121
  H   0.68832797042389     12.22782048117901     -2.33905863139811
  C   5.31777300713881     11.87746161476776      5.95250339342469
  H   6.25129960631251     12.43021459986319      5.87837531516186
  C   4.98384902108618     11.17695098338599      7.11950550065368
  H   5.66074102494959     11.17777173676287      7.97066386384433
