84
Coordinates from ORCA-job CTPMNP-CH3OH_0_1_tpss_d4_lanl2dz_631gpol_Mn3.opt
  Cl  1.52610118856885      8.25016148216555     -3.55137512423292
  C   -4.15396113887720      4.42091849983605     -0.03291114954513
  C   -2.84626286585611      4.91693763325921     -0.08100783997918
  C   1.20836760759891     10.62182065801525      1.46440196421138
  C   0.69609413414504     10.31533573590077      2.74100179034324
  C   0.36502404837831     11.33386043678941      3.64140488282528
  C   0.53815851097888     12.67654206073262      3.27906690417624
  C   1.04221164237559     12.99395083253635      2.01025831857365
  C   1.37441484774314     11.97590581158527      1.10983175524790
  C   6.77639747805548      9.07075533284680     -2.46472278931149
  C   6.85818824806917     10.41324137497587     -2.88517284383039
  C   8.10213417044536     11.01695952221731     -3.10097272857529
  C   9.28354275286780     10.29045662969910     -2.89774591774598
  C   9.21410114994250      8.95472539318193     -2.47910026103672
  C   7.97066400821530      8.34970479522648     -2.26495448017476
  C   3.60535742296157      3.22086146611787     -4.61480326412830
  C   4.75963024368901      2.46638486374862     -4.32564053432564
  C   5.13205143267231      1.39154110432782     -5.14035645674766
  C   4.35813037117202      1.05623999819020     -6.25961764520113
  C   3.21047707888476      1.80280476707824     -6.55941352270101
  C   2.83596336496664      2.87663337987746     -5.74388388252094
  C   1.95863293475441      4.34174980366885     -3.12672595024616
  C   0.12318607355396      4.96242978928993     -2.08246490873363
  C   -0.54386955566456      6.92417642696363     -0.73979894025090
  C   0.54021395733635      8.63978888983391      0.13329287942352
  C   2.85964342595254      9.48062821369835     -0.00462692856538
  C   4.60850451243850      9.00709078433974     -1.26149457813705
  C   5.12015178104183      7.28046633957970     -2.95011536116337
  C   4.12160722036004      5.42901047647847     -3.61306827452036
  C   1.03243047527378      3.23936589469766     -3.22121945623473
  C   -0.11110959427711      3.62899403241781     -2.58256853780231
  C   -1.52252477812946      7.75175987364485     -0.08648823507692
  C   -0.84964412892295      8.80868257567346      0.46436480321988
  C   3.92747671863508     10.35333019858093      0.41643854982597
  C   5.00885537040186     10.06694413596583     -0.37099602692638
  C   5.94277288347149      6.70911266205085     -3.98524336150315
  C   5.32769679768669      5.55681314838327     -4.39035883408539
  C   -2.22548189243617      5.18640157173181     -1.31692306792887
  C   -0.83412784178254      5.71108061136423     -1.37964072711683
  C   1.55332955250560      9.53529819661428      0.50738006323168
  C   5.45277779569385      8.43335459944148     -2.22519191611316
  C   3.21697280480420      4.36532491137781     -3.74500919761337
  C   -2.94706724739376      4.94735562934396     -2.50393852229135
  C   -4.25510590231329      4.45321827355419     -2.45467739534052
  C   -4.86239284617676      4.18791092515963     -1.21961466724640
  Mn  2.31891293911893      7.05781138149832     -1.79315608919661
  N   1.40555646901642      5.37212152674029     -2.39013038368013
  N   0.71996363121170      7.48650500238764     -0.61778692388757
  N   3.30332733596157      8.62856585439684     -1.00326291725290
  N   3.99068815619438      6.50223347569264     -2.74827258407509
  O   2.92796046908381      5.92541388983498     -0.10299531079406
  H   -4.61685556324623      4.21020026486857      0.93032061622089
  H   2.61020740522736      1.55475683497924     -7.43377008960172
  H   1.24064598932697      2.29326703744259     -3.70499504653817
  H   1.74926918213008     12.21908266734684      0.11703394447617
  H   -0.02295372766330     11.07921597493539      4.62689151319123
  H   6.02300900732012      0.81324336037405     -4.89887797657110
  H   5.93824109919482     10.97086410680705     -3.05379625624210
  H   8.14842804830906     12.05290964796064     -3.43418783861221
  H   10.25124390848945     10.76146641673980     -3.06481673453800
  H   0.56825005799606      9.27108503372959      3.02326396725850
  H   -2.28968125984552      5.08682061296004      0.83973026342584
  H   1.95394376374935      3.46836017614931     -5.98356296428078
  H   10.12795594385266      8.38556881004750     -2.31283986737376
  H   7.91455664459448      7.31508211669029     -1.92906368575593
  H   -2.47656860707861      5.16794442863380     -3.46067396398940
  H   4.64838050584956      0.22079087924455     -6.89513382742560
  H   0.27959536066873     13.46958503702326      3.97923402253238
  H   1.16822669975553     14.03543314214239      1.71750204948759
  H   -1.02378599359088      3.06445335292375     -2.43791087399308
  H   5.35493109886290      2.72466315986310     -3.45096516069133
  H   -4.80269849612088      4.28251368515940     -3.38067729677672
  H   -5.88055253549571      3.80285933492278     -1.18208946540635
  H   3.85584692945414     11.08200452694811      1.21432724369446
  H   5.99519521614529     10.51292029778489     -0.34157102380012
  H   -2.58754517995754      7.55724396483989     -0.07171886798235
  H   -1.25771242450506      9.64733975417074      1.01466625055848
  H   6.85836908050501      7.14733206548596     -4.36212713218893
  H   5.64094007889169      4.86803459312816     -5.16494886050105
  C   4.22922872706345      6.13733539039400      0.50052021290951
  H   4.32332065342310      7.15434715110784      0.89754826923760
  H   4.37799181312499      5.39308180086261      1.29280738617793
  H   4.95020320027958      5.98542993740618     -0.30475983626727
  H   2.21760015889052      6.21563356421319      0.51180665412602
