78
Coordinates from ORCA-job CTPMNP_0_5_tpss_d4_lanl2dz_631gpol_Mn3.opt
  Cl  1.57990027764538      8.31654717964508     -3.59879852692958
  C   -4.15186243827708      4.44500611741647     -0.00481592415132
  C   -2.84176151865405      4.93621577770261     -0.02273442844683
  C   1.28456116237636     10.51502771132810      1.68382715178129
  C   0.75671606228916     10.18017460547216      2.94665764283988
  C   0.43087582247486     11.18034851130869      3.86934715656659
  C   0.62377575667441     12.52928625967840      3.54182161249916
  C   1.14367505894467     12.87342858131486      2.28651939161797
  C   1.47256337070942     11.87450740691361      1.36360792686734
  C   6.81300645342036      9.03378163684773     -2.31555149772534
  C   6.84071783784543     10.37633697523872     -2.74236741637793
  C   8.05940755450286     11.01597295272894     -2.99443156889280
  C   9.26669447210377     10.32609463538095     -2.81831972822805
  C   9.24979287536515      8.99185839270010     -2.38939523347455
  C   8.03198721294505      8.34923777432089     -2.14046936500800
  C   3.71649448434364      3.07501754047151     -4.31242258158456
  C   4.87891999122823      2.34005026319648     -4.00624095706899
  C   5.25578508085640      1.24516551267886     -4.79185711623956
  C   4.47936316490268      0.87213193706317     -5.89749495545651
  C   3.32435304822140      1.60023844280952     -6.21392445984059
  C   2.94419239938858      2.69330181419413     -5.42748965985373
  C   2.05599168213392      4.23279058385278     -2.86941194610535
  C   0.18333805792270      4.90953442937531     -1.91377424533504
  C   -0.49701293085497      6.91441251124705     -0.65760383016046
  C   0.60613861669982      8.58790649285766      0.27609373079790
  C   2.93909330646341      9.37469244714082      0.21901237094924
  C   4.68152060345163      8.91390337770614     -1.05817606290447
  C   5.18095783235807      7.20711817441341     -2.76039136288801
  C   4.20687489490005      5.31984179957281     -3.37506706029891
  C   1.13148711012351      3.13091245416327     -2.92981469796407
  C   -0.03339706944557      3.55554814086950     -2.35185581828803
  C   -1.46976303476756      7.74621542948447     -0.00182560670995
  C   -0.78592585587511      8.77233015568647      0.58946796768591
  C   4.01667738445569     10.22397252476615      0.65496869353189
  C   5.09038360358604      9.95036003495964     -0.14731624468934
  C   6.00432466156706      6.62214539033550     -3.78441290919954
  C   5.40984070801866      5.44714532025530     -4.15354165483550
  C   -2.18667228915471      5.18235426115101     -1.24555768246791
  C   -0.79037570811913      5.69480457302857     -1.28003652472466
  C   1.62623617367401      9.44882356004590      0.70346825552491
  C   5.51132193418320      8.36548361172289     -2.04653036730680
  C   3.31812095418292      4.24123923540714     -3.47819442065159
  C   -2.87168658177992      4.92366548242426     -2.44963998608758
  C   -4.18282202110247      4.43564873216247     -2.42948250199676
  C   -4.82606624961195      4.19464240026530     -1.20779172834146
  Mn  2.34025443113564      7.06504561823767     -1.71462245938839
  N   1.47935293046979      5.30018262542708     -2.20017737940865
  N   0.77244379277329      7.45645489055193     -0.50826330936345
  N   3.37409060529353      8.54160601203425     -0.79960201771041
  N   4.06337651827251      6.41434627733235     -2.53595521559227
  H   -4.64287893582735      4.25115272562678      0.94784097276505
  H   2.72306849194861      1.32264758948450     -7.07848854901831
  H   1.35423278383521      2.16096663017362     -3.35629449802990
  H   1.86005659016908     12.13783963251972      0.38087840069213
  H   0.03192154149178     10.90631626119999      4.84502561868213
  H   6.15212796676868      0.68105254879576     -4.53778124767438
  H   5.89962071563542     10.90356960783341     -2.88984037989872
  H   8.06563135045038     12.05069614444024     -3.33406213607851
  H   10.21480391073341     10.82511272355240     -3.01342541867639
  H   0.61696859231949      9.13053104726790      3.20087599016347
  H   -2.31011804123857      5.11702861970200      0.91033709283250
  H   2.05718190639294      3.27169677485207     -5.68065148424923
  H   10.18480619692930      8.45308482502543     -2.24193298803711
  H   8.01591870471473      7.31712816199631     -1.79342306739782
  H   -2.37203531532294      5.12466915586214     -3.39579294495609
  H   4.77379614433360      0.02107270971047     -6.50982686539209
  H   0.36850943130460     13.30749277519350      4.25962770907492
  H   1.28535339894282     13.92029655330050      2.02190831435784
  H   -0.95260039204358      3.00164967866250     -2.20807322864304
  H   5.47579163873105      2.62746257302965     -3.14182255453741
  H   -4.70364651624863      4.24983796306489     -3.36769243819266
  H   -5.84631612431581      3.81395155656732     -1.19305704331543
  H   3.95330553459274     10.93060217679557      1.47286857645946
  H   6.08137032436820     10.38551648259416     -0.11499906760387
  H   -2.53708254009154      7.56507350734828     -0.00323972688603
  H   -1.18279065196202      9.59975115127328      1.16386890537854
  H   6.91440052404998      7.06308955494327     -4.17091017774322
  H   5.73484057907753      4.73765429429586     -4.90395121304086
