79
Coordinates from ORCA-job CTPMNP-oxo_0_1_tpss_d4_lanl2dz_631gpol_Mn3.opt
  Cl  1.79965032848222      8.06481019524467     -3.29916291899629
  C   -4.18636336741397      4.46821984154801     -0.07000650418749
  C   -2.86522288176095      4.92840594079694     -0.06555371397444
  C   1.29639866785147     10.47566073469705      1.72753763786132
  C   0.83803069600105     10.11176147508753      3.00929208139911
  C   0.50757788110755     11.09268194771615      3.95047265885529
  C   0.62246514100337     12.45029792455840      3.62196114708509
  C   1.06939065902794     12.82260304132861      2.34668345051062
  C   1.40574493940209     11.84321876897623      1.40570592064619
  C   6.77654678915976      9.05774157971269     -2.37662618398064
  C   6.78439209570612     10.36376423830311     -2.90503258780448
  C   7.99438808822460     11.00924587349741     -3.18221358161940
  C   9.21215438643035     10.36299968828793     -2.92914262605002
  C   9.21423385661282      9.06585239145354     -2.39829309277233
  C   8.00538523187163      8.41594763882666     -2.12575591168601
  C   3.72611537617686      3.05347343159401     -4.26576859804451
  C   4.83418300871664      2.26733185369298     -3.89390742188453
  C   5.21798761971835      1.16882819551388     -4.67134542504611
  C   4.50564954870895      0.84585455922672     -5.83425163675235
  C   3.40716495449259      1.62781331804853     -6.21694078240995
  C   3.01865901287344      2.72362684737364     -5.43854475279447
  C   2.04301244755213      4.24587421884204     -2.88143927946039
  C   0.16250637708078      4.92373339900871     -1.94841243102625
  C   -0.48428862691860      6.89059749132483     -0.62223138857605
  C   0.63539321613194      8.54263582255486      0.32929701198810
  C   2.93865165956561      9.41236432158361      0.18911700246823
  C   4.64159639971846      8.96398113893443     -1.12726426662313
  C   5.19623684536199      7.17757120079569     -2.74771182497171
  C   4.24614931457626      5.28311396704592     -3.32247534679783
  C   1.07989744485109      3.18662785162688     -3.05287796148260
  C   -0.09004976387749      3.61423775891105     -2.49099003534352
  C   -1.44769402340706      7.71680474065856      0.05389441349220
  C   -0.75364144302309      8.72564920444044      0.65974708164152
  C   3.98787166371225     10.33864718315848      0.54117258771779
  C   5.03841725347608     10.07214209080210     -0.29051950087686
  C   6.06631322616869      6.55303386837493     -3.71952381231914
  C   5.48400623109746      5.36792656432832     -4.06497419106636
  C   -2.20555478554223      5.21925310071391     -1.27575012519094
  C   -0.79801570703267      5.69984357561195     -1.28372026547137
  C   1.64368511031803      9.42659324966407      0.73162324704570
  C   5.48486227206727      8.37864283650912     -2.08417465031561
  C   3.32663741625340      4.22712589673822     -3.44053565908859
  C   -2.89767663126178      5.03928475823928     -2.48975671394083
  C   -4.22038573480097      4.58367914212285     -2.49160210770230
  C   -4.86793874604230      4.29585492135933     -1.28246075245207
  Mn  2.43469782919331      6.83942089629070     -1.37288470653931
  N   1.47614523896323      5.28345338122907     -2.15621289875470
  N   0.79025631892866      7.42051267773856     -0.47397582678131
  N   3.36246125807199      8.56432664986857     -0.80457518037996
  N   4.07852342309011      6.40193877797747     -2.54961308571442
  O   3.16389955078749      6.04361828882150     -0.21860198027705
  H   -4.68104744677537      4.23806532064753      0.87251549162120
  H   2.85677797978101      1.38954874074361     -7.12605166863687
  H   1.28194407569313      2.24152366652577     -3.54026788846417
  H   1.73676197427127     12.12809698198848      0.40848371589637
  H   0.16466227607291     10.79695307353724      4.94096457050220
  H   6.07074842138510      0.56358145589063     -4.36689504138144
  H   5.83586823767677     10.85759658235034     -3.10943933304492
  H   7.98600631215329     12.01491584758014     -3.60022211005105
  H   10.15339350256799     10.86721071454553     -3.14316141265663
  H   0.75691805860912      9.05580183981526      3.26249711528522
  H   -2.32875681484107      5.05068039658413      0.87403497682468
  H   2.17597908444838      3.34295906732342     -5.74150504348364
  H   10.15707053067886      8.56172360962884     -2.19045857284284
  H   8.00317054266841      7.41308157487172     -1.70144510262623
  H   -2.39416447762654      5.27474350351724     -3.42577489204466
  H   4.80645958393950     -0.00768555045374     -6.44000044937590
  H   0.36315090118838     13.21356632101801      4.35412272182688
  H   1.14920634489031     13.87581910040998      2.08131744269069
  H   -1.03404354224325      3.08871155072983     -2.42290880610203
  H   5.38197546079560      2.51805853849878     -2.98676963867847
  H   -4.74659491004734      4.45919041805189     -3.43681053153106
  H   -5.89692434626364      3.93949488282537     -1.28489040629272
  H   3.92239053050068     11.08445348973930      1.32322570839740
  H   6.00759993850985     10.55336110042783     -0.32253056444664
  H   -2.51658275005003      7.54581898733628      0.05040992963352
  H   -1.14141797628505      9.54846355173031      1.24675260617130
  H   6.98937947550297      6.98009348040596     -4.09006062580892
  H   5.83096196534568      4.63054329296963     -4.77760670293703
