47
Coordinates from ORCA-job DASBIM-CH3OH_2_5_tpss_d4_lanl2dz_631gpol_Fe2.opt
  Fe  12.94852999818530      4.02545246513528     14.32964345407894
  S   11.50864847631261      5.83116257973915     13.43724211053461
  S   14.43083980486188      4.41557617749264     12.40855955697740
  C   11.01520954785043      5.04603679546432     11.82328736749978
  H   10.66292763174127      4.02840372981028     12.02352933371786
  H   10.19678581630010      5.64652833156361     11.41178977887489
  C   12.20066501522061      5.04821014011001     10.82913441172178
  H   12.65781354238231      6.04629912631392     10.77449737680827
  H   11.76097344753289      4.86482446886133      9.83861770755989
  C   13.28965911392062      3.96410227531678     11.00927190892339
  H   13.90030412504406      3.90968712197736     10.10149220741618
  H   12.84342790080454      2.98359026880583     11.20369307248836
  C   15.59825343712942      2.98215220571139     12.65774687727670
  H   15.12222860993046      2.05501077396633     12.31769346586444
  H   16.49178871426878      3.15810055219198     12.04807094515174
  C   16.00787026895589      2.90447209712895     14.14292811903042
  H   16.36829561834018      3.87436612862933     14.50822956504320
  H   16.80422816828900      2.16047969925282     14.25915383809350
  N   14.07209682356820      5.69016747554831     15.24364640279144
  C   14.59231810740457      6.73284427960805     15.34396330600832
  C   15.23979274331151      8.03242326067978     15.47006281322160
  H   15.63280354850802      8.15954825868237     16.48692666811781
  H   14.51239904842617      8.82749842390070     15.26085028783979
  H   16.06621916042452      8.10360780162988     14.75112340565645
  S   14.55520405352264      2.38488605732142     15.18681723455548
  S   11.46428363116193      3.88019899649187     16.29077950858844
  C   14.91653778682757      3.04196163554376     16.88876966421020
  H   15.29366165645573      4.06567247055726     16.79054653831550
  H   15.70387963357541      2.40561371467646     17.30685744260656
  C   13.67068437698589      2.98126239922404     17.80355544011849
  H   13.16827885883611      2.00723281317607     17.71493766989373
  H   14.05576787555039      3.01883315558170     18.83233104594175
  C   12.64833693751826      4.13696003228087     17.70062312492654
  H   12.04343088416457      4.17170603353575     18.61287116781517
  H   13.14350399852950      5.10293228827429     17.55469414898468
  C   10.57941713280287      5.49712316633449     16.04495094583185
  H   11.27265312581464      6.31550438702231     16.27589285071372
  H   9.72960212974587      5.53990450135709     16.73545473932693
  C   10.06816049738288      5.58236302204086     14.59194091011807
  H   9.52037052170536      4.67680669937168     14.29981943637490
  H   9.39379472154769      6.44095819621852     14.49658514375392
  O   11.71396544398641      2.41046239456905     13.54392044640121
  C   12.16464757801273      1.05986111336180     13.17619979375932
  H   11.36858653290607      0.56586846521865     12.61153734088772
  H   13.04352665812916      1.19807242512651     12.54512420898183
  H   12.43050661801386      0.49216579575247     14.07278148357425
  H   10.93885067811026      2.30721579944240     14.13705573362209
