41
Coordinates from ORCA-job DASBIM_2_5_tpss_d4_lanl2dz_631gpol_Fe2.opt
  Fe  13.26450334901673      4.70159749353270     14.17722044704802
  S   11.37221280996961      5.85763704996731     13.09044646123286
  S   14.42152985409402      4.43460423480411     12.01333208642468
  C   10.85590828558011      4.51074325243237     11.90712561391095
  H   10.69399039300545      3.58812713484036     12.47995374813365
  H   9.89906955407507      4.84210638333583     11.48773771563375
  C   11.87334222565391      4.29807967436901     10.77293150473177
  H   12.16705196916196      5.25536252338531     10.32043280457421
  H   11.33924389055195      3.74356167271675      9.98824635213881
  C   13.10746174743422      3.45012396954034     11.12614874688764
  H   13.58492954216248      3.09129332026356     10.20715927282935
  H   12.83734802568930      2.58646458133638     11.74819575098439
  C   15.67649781282032      3.10474540647082     12.38709391936499
  H   15.33318373184723      2.18404919306877     11.90068471105501
  H   16.61720372097535      3.41250917920207     11.91697638162324
  C   15.89251145572463      2.90253373950805     13.89234983819897
  H   16.27764993416740      3.81394564229142     14.36792342250683
  H   16.60267536088562      2.08303557257741     14.05829274699579
  N   14.24742198520966      6.19467342893503     15.13232393944019
  C   14.79079317492972      7.16190552962677     15.50524151408557
  C   15.46430794083288      8.36473593347214     15.96994141446144
  H   16.49626806901833      8.12434882936081     16.25812582582176
  H   14.93167468586164      8.77523924335419     16.83813685949022
  H   15.47592959201001      9.11129105876046     15.16443114072121
  S   14.27324952227789      2.45763653506265     14.67917206328378
  S   11.44646166625018      3.77280058630249     15.65513333838133
  C   14.62794979521630      2.66989578071048     16.49144620794389
  H   15.10576442695173      3.64754187905909     16.63562775988898
  H   15.33517244306723      1.87940393333654     16.76706497975104
  C   13.34438321406038      2.53874149080964     17.33174627096484
  H   12.82216611093951      1.60043307248315     17.09984161769096
  H   13.66701652674837      2.45802032388649     18.37932053553714
  C   12.37418424329013      3.73226088287131     17.26678594657140
  H   11.61948376339734      3.64101137763714     18.05628665338952
  H   12.90222033294966      4.68754908462214     17.38276429579502
  C   10.54302460003019      5.38794496260994     15.75712897257566
  H   11.23368735723458      6.15299854632492     16.13441278348483
  H   9.70566184163197      5.28094224590168     16.45778251222692
  C   10.01312814020287      5.74969937710690     14.36433797445030
  H   9.28508846233061      5.01292564760092     14.00475248486273
  H   9.52414844274271      6.72968022652224     14.39694338490548
