43
Coordinates from ORCA-job DASBIM-OH_2_6_tpss_d4_lanl2dz_631gpol_Fe2.opt
  Fe  12.80662461107448      3.82046700218730     14.05679582784011
  S   11.43021808172511      5.76817895417012     13.31305221836590
  S   14.43154595627923      4.41034440434050     12.24942757533095
  C   10.99834860896988      5.06988427300898     11.63957067210153
  H   10.64846118552432      4.04250698315165     11.78790428353121
  H   10.18726470939373      5.69303159669914     11.24629657631103
  C   12.20547920796134      5.12826422826798     10.67575746952416
  H   12.65968697275089      6.12951517581890     10.67550508143040
  H   11.78658402078493      4.99239349897753      9.66871759229954
  C   13.28424491367727      4.03250711828161     10.83025508653401
  H   13.90721427831566      4.00356270401310      9.92923135041982
  H   12.83836994075237      3.04927120384576     11.01487408607179
  C   15.40060996769961      2.83625404521676     12.50184350312113
  H   14.76587149502416      1.98660682933953     12.22102924227153
  H   16.27119468770854      2.86923987062130     11.83633688928584
  C   15.87714988186687      2.74481806308184     13.96548357283853
  H   16.27047428030951      3.70205661886478     14.32916491892418
  H   16.66108681225800      1.98280010888564     14.04682018149632
  N   13.93546714983683      5.47677805067413     15.11247882323610
  C   14.44961494173752      6.51449625012521     15.27643879312509
  C   15.08893164056941      7.80979639163016     15.47540395953907
  H   15.56763820371270      7.84625406361868     16.46235296467984
  H   14.33691982359191      8.60676257399224     15.40956517660088
  H   15.84867371139878      7.96849244732554     14.69921375146195
  S   14.46723803538217      2.22248213422832     15.06602404466626
  S   11.41820645962550      3.60036520724419     16.14180967209742
  C   14.87010498165930      2.92850551067241     16.73359464564878
  H   15.23556263546117      3.95225655448052     16.60334871056741
  H   15.67657379905408      2.30634031184625     17.13881242066368
  C   13.65562510884554      2.86809458295750     17.68799362453490
  H   13.19586478080689      1.86958034099945     17.66946145340864
  H   14.06585139144538      2.98440489244289     18.70091575509433
  C   12.58043758153394      3.96820224084166     17.53969663993241
  H   11.96547394410513      3.99451710743632     18.44679939721038
  H   13.02538484103519      4.95494086780063     17.37615471944927
  C   10.46821537457542      5.18036741585226     15.87130529241337
  H   11.10614628467489      6.02697636234292     16.15314812910849
  H   9.59356171688989      5.15738562145620     16.53195818757264
  C   10.00038770553271      5.27334009343601     14.40526083827044
  H   9.59742292710488      4.32028714251916     14.04065122768162
  H   9.22858025556885      6.04694471626067     14.31700820123067
  O   11.90347918597677      2.54003552203061     13.15897292735954
  H   11.60975790779841      1.65136091901334     13.44990451674774
