41
Coordinates from ORCA-job DASBIM_2_3_tpss_d4_lanl2dz_631gpol_Fe2.opt
  Fe  13.02713474624242      4.23179118387608     14.19915868288086
  S   11.46147658494787      5.65943798058881     13.27894172500748
  S   14.31453402299661      4.35788017478481     12.28567284783657
  C   10.90690012514209      4.76145399143530     11.74669534065556
  H   10.57055239229915      3.75820190195553     12.03803126900389
  H   10.05229206227024      5.32805903176646     11.35815253361518
  C   12.01858710950745      4.70599284334163     10.68455184048476
  H   12.40759026232095      5.71161685701574     10.47427298615452
  H   11.53934537584920      4.36117747751428      9.75731394438146
  C   13.16843285294502      3.72270136169947     10.96366086622827
  H   13.78325715661033      3.60775261765834     10.06303226335915
  H   12.79727379805157      2.73753914394473     11.27377260234192
  C   15.50697863516174      2.93375008921603     12.47827398153291
  H   15.02517103869851      2.02552738043318     12.09587456405836
  H   16.39255289963211      3.15538862983189     11.87175262084439
  C   15.88340181156178      2.79606979406334     13.95374487884170
  H   16.33251864195610      3.71379539589263     14.35160618191150
  H   16.57079131238681      1.95349560680656     14.09733724361946
  N   14.06185836430259      5.77223601777705     15.18607929161314
  C   14.61615386595131      6.77707992552241     15.41873710611497
  C   15.30378367148371      8.03226906864938     15.70070640299031
  H   16.28147155006754      7.83103630114189     16.15697833976888
  H   14.70375293518644      8.64420631405570     16.38618121554144
  H   15.45244434533480      8.58399686714320     14.76309038014362
  S   14.31738548865302      2.45133026760935     14.88568350298219
  S   11.50877835409396      3.72486410251759     15.85834514761649
  C   14.75471411933271      2.85452868766512     16.64017601745092
  H   15.19985678246863      3.85606671142784     16.65702005272689
  H   15.50274315119132      2.11441725924127     16.94896952204646
  C   13.52147184083358      2.75806308482993     17.55844834744956
  H   13.03820974814464      1.77674486807969     17.45608434798942
  H   13.90029712891377      2.80695238426261     18.58900119033380
  C   12.48639946151509      3.89058575849100     17.42355676897852
  H   11.76326857895246      3.82925194075339     18.24574309933945
  H   12.95998372167646      4.87915673935258     17.42327653994122
  C   10.46733342141843      5.25913912350354     15.83657751761449
  H   11.07718667771683      6.10147129447683     16.18419051116473
  H   9.61560404558272      5.11450981392163     16.51247969938193
  C   9.98227094697566      5.45483776071226     14.40032695992785
  H   9.39823341085947      4.59528355996457     14.04923103157400
  H   9.37350756076436      6.36254068707621     14.31827063455111
