41
Coordinates from ORCA-job DASBIM_2_1_tpss_d4_lanl2dz_631gpol_Fe2.opt
  Fe  13.00073873621908      4.21533800048580     14.14558685903143
  S   11.50336228044460      5.66914108896772     13.21566928367485
  S   14.27125122021914      4.39784934610023     12.25549635065735
  C   10.89087496956230      4.71437630093340     11.74088902161253
  H   10.55931614810660      3.72259716760693     12.07676698353267
  H   10.02407211016724      5.26662070047202     11.35776829220112
  C   11.97372356395538      4.61682953289870     10.65192307175502
  H   12.34219319563715      5.61608203985240     10.38264998866780
  H   11.47910006910683      4.21569469034057      9.75608421316914
  C   13.14806798258762      3.67200363355216     10.96158570378830
  H   13.76360718363457      3.53439185898695     10.06420996160171
  H   12.80110734477108      2.68906824561055     11.30792347994378
  C   15.53281070944031      3.03363573234595     12.47395564456290
  H   15.09881713655486      2.09554176408905     12.10627042544385
  H   16.40790167965224      3.29033661708846     11.86641486715947
  C   15.91235956754676      2.93511742392936     13.95251444675083
  H   16.33916967229572      3.87106706207687     14.33279887270333
  H   16.61980455402070      2.11257795716602     14.11288854537870
  N   13.90524578156785      5.59326390725689     14.93303727968676
  C   14.47970492646061      6.52885046722211     15.34173486786311
  C   15.19741420333490      7.70027130059896     15.83631006976377
  H   16.22489965639492      7.42706729119439     16.10953654544635
  H   14.68995551065833      8.11260251052194     16.71799060263678
  H   15.22888727343607      8.46727517926977     15.05111226705950
  S   14.34841822362074      2.57029972997399     14.87809934832875
  S   11.56976492392631      3.84662250846503     15.84270647929499
  C   14.78330358004305      2.92599039859564     16.64048308579941
  H   15.24842130263751      3.91799573861004     16.67980269526401
  H   15.51817424627944      2.16876143476838     16.93818864036796
  C   13.54493836990669      2.83442465564100     17.55203493497692
  H   13.05150618159010      1.85975984483954     17.43544104691092
  H   13.91828522442460      2.86701815429121     18.58517056083109
  C   12.52127580493691      3.97778056224280     17.42291333477661
  H   11.78782268604935      3.91180077278740     18.23515530844794
  H   13.00245757485484      4.96251706754345     17.44669540685452
  C   10.54995921265957      5.39455457736437     15.81018352973369
  H   11.17460675798629      6.23928350708773     16.12502945917355
  H   9.70876762141733      5.27788995494147     16.50420311090874
  C   10.04098443126447      5.55556433071726     14.37683417380014
  H   9.41992679585560      4.70377716614057     14.07292239149059
  H   9.46250158677180      6.48055977742272     14.27401884894839
