57
Coordinates from ORCA-job FEWRIK-oxo_2_5_tpss_d4_lanl2dz_631gpol_Fe2.opt
  C   -10.76610972249663      8.79237994469496     19.11027668642895
  H   -11.67781646029771      8.81369159697083     19.71376789067872
  H   -10.65353287560903      9.78160511005081     18.64955119081634
  C   -9.55835627356907      8.45453524699095     19.99650992763420
  H   -9.12140107708665      9.36566407153616     20.43244937216535
  H   -9.83402722589637      7.77048603779204     20.80413623758055
  C   -8.17012374691429      8.70056061977935     18.00577119523664
  H   -7.09096324669923      8.61696410914053     17.84193621922371
  H   -8.36815978847787      9.72971261522784     18.33433357508343
  C   -8.86819133554247      8.43876202505767     16.63687107910014
  C   -10.42825399234714      8.32255995400029     16.71265707862894
  H   -10.88082523830704      9.31316857571911     16.55464599896327
  H   -10.77716462556658      7.66187300385261     15.91114913119571
  C   -8.52777577069388      9.64395020685802     15.73296006102629
  H   -7.44438793423883      9.77365492624536     15.62042256620753
  H   -8.93269489315445     10.56340190630120     16.17305457538085
  H   -8.96963103978796      9.52821363280468     14.73557236907627
  C   -8.30344106246834      7.13510614449140     16.08795181166311
  C   -8.14954165407890      4.80432005451649     16.40131364786048
  H   -8.45905723465350      3.96114031835022     17.01173784451250
  C   -7.38151185689000      4.64921077142822     15.25059664236639
  H   -7.04618738325154      3.65934352078205     14.95341557691967
  C   -7.07965900945875      5.78608075214245     14.49222950239596
  H   -6.49591101626240      5.70346890396491     13.57810431640257
  C   -7.55142790826517      7.03623253872111     14.91193015283284
  H   -7.34233846968070      7.92219432024098     14.32127112098965
  C   -12.30405620825349      7.23984226073889     17.94413436775264
  H   -12.35696123346703      6.52742324581110     17.11078380239790
  H   -13.02988599863624      8.04678469833522     17.76259916392212
  C   -12.58293059339536      6.54236158932293     19.25984647437832
  C   -11.63624969254181      5.51210477985993     21.12571988244873
  H   -10.72292901491191      5.21754616928952     21.63598797391862
  C   -12.89236280376173      5.26113649786767     21.67951696244212
  H   -12.97141896816452      4.76031523427167     22.64081720666922
  C   -14.03152878059308      5.67116390348884     20.97525649959393
  H   -15.02596603863231      5.48773369243788     21.37538825173545
  C   -13.87329703010743      6.33325652038388     19.75205651161935
  H   -14.73527129369699      6.68081821508614     19.18682063134585
  C   -7.35755725057396      7.31510830206194     19.91109927255961
  H   -7.03556430888593      8.09554020160837     20.61457411224004
  H   -6.54025074981841      7.15358465005670     19.19585110858765
  C   -7.62311815118223      6.00252304686371     20.61254265258389
  C   -8.74772659247097      3.93773255049264     20.47931310505025
  H   -9.49929738272142      3.36199491447856     19.94485039488703
  C   -8.03807752753414      3.43862818422082     21.56989942199983
  H   -8.21422061333873      2.42204652602186     21.91130138342232
  C   -7.11055841505135      4.27309157752944     22.21077243871776
  H   -6.55292036799917      3.91621649058033     23.07381606689719
  C   -6.90069010783614      5.57191338062489     21.72717101145047
  H   -6.17786693619678      6.23369001507423     22.19862156604685
  O   -10.44882909125305      4.69721213480556     18.05383887574181
  Fe  -9.67988013719994      6.05497944998983     18.55610966303286
  N   -10.91331192465654      7.76885509523790     18.00504371669098
  N   -8.55274740749489      7.76380269606365     19.12730078973685
  N   -8.58088921682019      6.02188314318696     16.81554339712734
  N   -11.48319738031271      6.13800512990410     19.94002122652751
  N   -8.54384794079646      5.19722479664415     20.01878629810434
