62
Coordinates from ORCA-job FEWRIK-CH3OH_2_3_tpss_d4_lanl2dz_631gpol_Fe2.opt
  C   -10.73809437140369      9.01665548559766     19.21932893588380
  H   -11.64924610818731      8.99258697658797     19.82421491598657
  H   -10.67791939868273     10.00976019699289     18.75707316684070
  C   -9.51290797387976      8.73534431746131     20.10456061195456
  H   -9.16114832118090      9.67307161742537     20.56832038919270
  H   -9.76221972424001      8.02431900780564     20.89989609751107
  C   -8.12863769958158      9.03661746131274     18.12646121007932
  H   -7.04335306353251      9.02365396698904     17.97618338520672
  H   -8.39711493915850     10.07093490658041     18.38954652553193
  C   -8.78988965212392      8.64994812326935     16.76279880978358
  C   -10.34537399803357      8.55348346739622     16.82022010668738
  H   -10.78190882873837      9.55185962261297     16.66677418207144
  H   -10.69431519706861      7.90670264159975     16.00603265142545
  C   -8.44109958289526      9.76736886855619     15.75516282674747
  H   -7.35726691333507      9.91313582239306     15.67258352182510
  H   -8.87687555673465     10.71676132619287     16.08954955700266
  H   -8.83911924480197      9.54671181205392     14.75662249651503
  C   -8.19726531341111      7.30662554591467     16.35825054005856
  C   -7.97351286778048      5.02368002096457     16.87229181803108
  H   -8.28450747889053      4.21168530381774     17.52338206306490
  C   -7.07619046316880      4.81520532601854     15.83087279678387
  H   -6.66095781188875      3.82482978511040     15.66387315619620
  C   -6.73983817532377      5.90193176493841     15.01513599996609
  H   -6.04994887923834      5.78211574096169     14.18295204151913
  C   -7.30519651618671      7.15110617217875     15.28766266898830
  H   -7.05182057635860      8.00302327714470     14.66531212456714
  C   -12.26852157415954      7.49953615003838     18.01914433402285
  H   -12.34014385176494      6.83425779135977     17.14916130736068
  H   -12.98730971594716      8.32189503605016     17.88788831600292
  C   -12.50934058001521      6.74730848066242     19.30881970255365
  C   -11.47778817369364      5.58023640893536     21.05481649313117
  H   -10.55423423900225      5.19214402407925     21.47195617340477
  C   -12.69244061428406      5.43790591047814     21.72628218593378
  H   -12.71758001399013      4.92719413756710     22.68542343340364
  C   -13.85508181830332      5.96549501833374     21.15212027026482
  H   -14.81583380138471      5.87168511660507     21.65275295637959
  C   -13.75415546868324      6.64057161614244     19.92817275415555
  H   -14.62884492407112      7.09062340651446     19.46375704594508
  C   -7.33402511523190      7.56216839389774     19.97506300431560
  H   -7.00536184687940      8.21334984592350     20.80126165807707
  H   -6.49488945568221      7.49485011211308     19.26923232149966
  C   -7.58578932901277      6.15407093649533     20.49089610623646
  C   -8.68992921518446      4.10323097111156     20.23704063493066
  H   -9.48212052706100      3.56419314666159     19.72153998012133
  C   -7.87114439108624      3.48466961323408     21.17784369215543
  H   -8.00600597578755      2.43042518896662     21.40514568427874
  C   -6.89503654628806      4.25522252759915     21.82523387576235
  H   -6.25063024423069      3.81410344448919     22.58215560457129
  C   -6.75823297585459      5.60223871818631     21.47645366747145
  H   -6.00284236673529      6.22562803770987     21.95032111139772
  O   -10.94969602201229      4.57822912023897     17.65941167146348
  Fe  -9.80466826503091      6.31830357238652     18.62370241176880
  N   -10.86008440616982      7.99268678017819     18.10009303533111
  N   -8.48313276403385      8.12152132456091     19.24444316712659
  N   -8.53149050836612      6.23651784447569     17.13569214705443
  N   -11.37353140317898      6.20799070601199     19.85578494094163
  N   -8.56172248251207      5.41445570247979     19.90030698095822
  C   -11.12146825304793      4.07191526166156     16.30085463806972
  H   -10.36103130777596      4.56789617315761     15.69545800504186
  H   -10.96782042988126      2.98734758914582     16.27955502204298
  H   -12.12095853900991      4.32116992554148     15.92549874083221
  H   -11.65759419882129      4.20160340912995     18.21957432657074
