56
Coordinates from ORCA-job FEWRIK_2_3_tpss_d4_lanl2dz_631gpol_Fe2.opt
  C   -10.86472456977831      8.94189813634312     19.16052044483458
  H   -11.76291693272074      8.85008579134012     19.77875051421746
  H   -10.88863651204300      9.92742250436802     18.68019242166764
  C   -9.61226387311240      8.76693301365932     20.04559948597468
  H   -9.24621291098276      9.74267326572232     20.40274105969563
  H   -9.84054651601677      8.14600209923805     20.92152211167741
  C   -8.16278257147444      8.87298124460929     18.05626143911367
  H   -7.07770577068522      8.80060820468887     17.93082970946065
  H   -8.39577294321825      9.93022204552783     18.25010913591373
  C   -8.82609314376736      8.43176576056536     16.71764253193862
  C   -10.37874693557456      8.41790214188221     16.78952425174939
  H   -10.77107898392885      9.43481183223029     16.64755450234063
  H   -10.76221936457877      7.79140863405590     15.97731315360699
  C   -8.41926516942801      9.48134412375112     15.65801811408962
  H   -7.32930457117758      9.56407044500768     15.56864875510029
  H   -8.80342032485146     10.46836538253319     15.94311720517925
  H   -8.82946223418653      9.22966171727501     14.67238101964955
  C   -8.36608688171430      7.02729715362030     16.33277718069354
  C   -8.60030452018873      4.72307948113620     16.72790785334469
  H   -9.06074002488707      3.95271072969812     17.34150890278652
  C   -7.76758155021167      4.39632879210227     15.66250893089292
  H   -7.57580142270040      3.35440754021661     15.42078508268243
  C   -7.19122207071082      5.43952309830067     14.92736737190120
  H   -6.52369965969322      5.22918659102486     14.09482561165132
  C   -7.49507152199609      6.76205971406543     15.26789958699354
  H   -7.06768518733258      7.57840186922898     14.69461307733148
  C   -12.28619938479649      7.31616678430675     17.92388919770584
  H   -12.27293739937312      6.65862560985164     17.04423370593513
  H   -13.02725163862723      8.10980139276675     17.75043378856603
  C   -12.58783436914622      6.52034575922956     19.16713699203775
  C   -11.63511881802000      5.26761215707520     20.90251426071914
  H   -10.72617521206137      4.88716290585833     21.35852249049218
  C   -12.88737443955406      5.02864423073216     21.46637226207466
  H   -12.96305487175131      4.44298423822030     22.37865361606250
  C   -14.02510245226394      5.55769417696815     20.84454933889081
  H   -15.01492448623611      5.38877916098305     21.26192580688088
  C   -13.86800633644951      6.32458570364562     19.68194705208066
  H   -14.72733393887713      6.76509831033901     19.18175721516208
  C   -7.41648823980916      7.59020879895009     20.09131560522112
  H   -7.28596918192146      8.24119309373485     20.96768318798978
  H   -6.50000487880782      7.67608025656664     19.49461967973380
  C   -7.55718979802391      6.13732900213217     20.51991890714363
  C   -8.60373221212100      4.05749896443130     20.21335451415969
  H   -9.39695454173751      3.50852240295371     19.71068703131863
  C   -7.73623188141140      3.43587921129218     21.10589695611330
  H   -7.83348952850297      2.37140318153581     21.30194015043884
  C   -6.75467146913677      4.21060198582397     21.74124761263424
  H   -6.06688753036517      3.75956222373356     22.45257752498303
  C   -6.67007554392832      5.57415656646535     21.44361483029288
  H   -5.91488316524111      6.19995418086392     21.91441729410364
  Fe  -9.76120588163851      6.40546452205054     18.83773720893499
  N   -10.90429227429096      7.87189618913031     18.07784520982440
  N   -8.56240778270824      8.05645046319928     19.25144927822096
  N   -8.89539127685552      6.00491380120006     17.06348005612683
  N   -11.47645756449644      5.98977368220768     19.76286813222839
  N   -8.52780773488667      5.38505973156038     19.92309163943548
