62
Coordinates from ORCA-job FEWRIK-CH3OH_2_1_tpss_d4_lanl2dz_631gpol_Fe2.opt
  C   -10.78694433320068      9.02814142068054     19.09225221911969
  H   -11.73551954043088      9.05139298361925     19.63647879300554
  H   -10.67109330977861      9.99992618033333     18.59883081032874
  C   -9.62331866029270      8.74884802568852     20.05330763439557
  H   -9.19043088043318      9.68721064619883     20.43375059608490
  H   -9.92729828431165      8.12992366971197     20.90050332773635
  C   -8.17886157899717      8.90515688585572     18.11717229950429
  H   -7.09424069305006      8.81260487731704     18.00534498520670
  H   -8.38335460571776      9.94122891031399     18.41751439518764
  C   -8.80671851304203      8.61416579514023     16.71984018078340
  C   -10.36541989121643      8.50444168499026     16.71964473032497
  H   -10.81731432893215      9.49060779480791     16.53391660417373
  H   -10.68039609899493      7.83113370235703     15.91401762299986
  C   -8.40551441654254      9.78231106433078     15.79521545901040
  H   -7.31592268359433      9.88917610926142     15.72703560746170
  H   -8.81410490679986     10.72305363377797     16.18439066597427
  H   -8.80367800613443      9.64073165576682     14.78256480848134
  C   -8.21108601745503      7.28891607637382     16.27587691565759
  C   -7.87179735920919      5.04570435802196     16.85748230028231
  H   -8.07669014512009      4.25619804149662     17.57184234556827
  C   -7.08389229197691      4.82074043292789     15.73240206110922
  H   -6.65129060213462      3.83744360625648     15.56705725770995
  C   -6.86837812361547      5.87556603409591     14.83848385124713
  H   -6.26477321667666      5.73689985077373     13.94456703970497
  C   -7.43614515542475      7.12242914116877     15.12327473817309
  H   -7.27259694694605      7.96096144303374     14.45365910115594
  C   -12.23362517975385      7.39508493209381     17.98197022848623
  H   -12.30889340224259      6.70415824536383     17.13472391334024
  H   -12.99629103349337      8.17784820265586     17.84772251980431
  C   -12.40178413864192      6.69054083447712     19.31403211945496
  C   -11.26864099687237      5.75475827012260     21.13596168838837
  H   -10.31257280375230      5.50152960265467     21.58395486133380
  C   -12.46856882265960      5.51260158362657     21.80505810916362
  H   -12.44959718917828      5.05951196364008     22.79291954010009
  C   -13.67593692715399      5.86657230543970     21.19043153038200
  H   -14.62694552206286      5.68991827988530     21.68723096828569
  C   -13.63558672651037      6.47647850713536     19.92933490789553
  H   -14.54983029129742      6.79416712675073     19.43246672700126
  C   -7.46153648530671      7.49730608278530     20.06460596083475
  H   -7.24984537623021      8.18290559797586     20.89597695515574
  H   -6.58065033593703      7.49019366215748     19.41045051780811
  C   -7.69166033663120      6.08315864791065     20.54281588811718
  C   -8.69940432527814      4.02234837131101     20.08615769576575
  H   -9.38942150073833      3.47603068143193     19.44903479128876
  C   -8.01759228381325      3.40748800025965     21.13552970483205
  H   -8.16464465753806      2.34734197758639     21.32543547458891
  C   -7.16130168092559      4.17893767396839     21.93116009980734
  H   -6.62657446510618      3.73506859717809     22.76745487244834
  C   -6.99983018580398      5.53673738767869     21.62571358620076
  H   -6.33389634696291      6.16484983415064     22.21352266185663
  O   -10.63734243249138      4.71546777040495     17.84664068608996
  Fe  -9.67223734136560      6.41299546334151     18.62769073287008
  N   -10.85462921223890      7.95109619339178     18.00540228435509
  N   -8.62316984091423      7.98866513375424     19.25028475794781
  N   -8.44495475389014      6.25033001890936     17.12768938475094
  N   -11.21868370288283      6.32013539645859     19.90137766862388
  N   -8.55428053820864      5.34042593799505     19.79006824105696
  C   -11.01586218114796      4.39711545011280     16.47037575731685
  H   -10.24000958436957      4.81987053195529     15.83261301515530
  H   -11.04800456902240      3.30918715370655     16.35424538001603
  H   -11.99132253050647      4.83132868198928     16.22214483913035
  H   -11.36430170904243      4.43469187543988     18.43929557995734
