60
Coordinates from ORCA-job CICWAP-CH3OH_1_6_tpss_d4_lanl2dz_631gpol_Mn2.opt
  Mn  6.36222237761960     14.73610335034676     14.49146312926534
  S   10.61527485610163     14.83081842165724     14.39905307080050
  N   4.06070099060580     16.04063064152297     16.67635638632205
  N   5.25265611963750     15.44118061246105     16.39506916571152
  N   7.30581362243145     13.70785875060129     16.19128493922686
  N   8.46883006100485     13.05150599425475     16.41124158796026
  N   7.51765091588873     12.91447507151449     11.79217129994508
  N   6.67243445201455     13.15934714955960     12.83109975940305
  N   4.61389847830518     13.21331544585817     14.57492490452359
  N   3.71964745552940     12.90728916410017     15.54944668497945
  N   8.00234397563423     15.87298143851383     14.03744672147295
  O   4.90102426291396     15.75836780557274     13.11486503817924
  C   3.55967960047567     17.09472726540386     15.79235829756050
  H   3.87214888756779     16.85486648855570     14.77252892307420
  H   3.97406280572939     18.06511028641530     16.09198656561845
  H   2.46804944144608     17.12463231389184     15.85801481462180
  C   2.35578339338178     16.28446839076209     18.51671742877674
  H   1.48314822428317     16.13393175224850     17.86608503296059
  H   2.46186418897736     17.36478375469612     18.68862086181047
  H   2.14759361460020     15.80872244666884     19.48016521282169
  C   3.60476939502954     15.70265903422130     17.92699309399791
  C   4.53204142209959     14.80431057086286     18.45556657602908
  H   4.48002134030569     14.31847756349043     19.42144025503100
  C   5.53688085991863     14.67247280348534     17.47452119431475
  C   6.75209985420765     13.87457641077528     17.41413454174337
  C   7.57370493931418     13.30718939951219     18.40967693602132
  H   7.41030195316572     13.29455813633079     19.47920493443028
  C   8.68813055436182     12.80719393215008     17.73505497505106
  C   9.93550794884425     12.14048286251558     18.22768936774246
  H   10.82925891366691     12.67237481826408     17.87473987961593
  H   9.99887571963088     11.10069820038256     17.87890793997554
  H   9.94808073544262     12.13548138913185     19.32197711152970
  C   8.51863501769109     13.90137981292130     11.38251674747157
  H   8.58291122052603     13.90784200601888     10.29007281339551
  H   9.49589275881802     13.65814277309630     11.81549521830138
  H   8.20278195147054     14.87793206362852     11.75179522118214
  C   8.14241954151543     11.14908014928822     10.11913916168559
  H   9.21479271423578     11.14129932495222     10.35770637679187
  H   8.00508509612210     11.76031880883093      9.21579890626100
  H   7.83721542764702     10.12482674417882      9.88373640589682
  C   7.32903641398986     11.66707672856226     11.26518222531905
  C   6.29610753015984     11.07737006498296     11.99341610220447
  H   5.87441738021924     10.09359273510569     11.83375933123477
  C   5.91672362548059     12.03724737424333     12.94761661828233
  C   4.89772298985405     12.02661422570202     13.98471572426448
  C   4.16289752327287     10.98163669375562     14.58205173325092
  H   4.18367440144669      9.92876379698579     14.33337442442310
  C   3.41510029613967     11.57988839614234     15.59664204783977
  C   2.43779981521749     11.01739014634908     16.58323347677828
  H   2.59735084212255      9.94038690797868     16.69727288027641
  H   1.40150062238026     11.17186800129787     16.25101716634443
  H   2.55308787170955     11.48742663330061     17.56873162940808
  C   9.12133098029357     15.45755221746267     14.20434939099277
  H   9.15276847721962     13.01398579043151     15.65166395756954
  H   3.40421943399939     13.64281487938588     16.17555019144291
  C   5.40416076080624     16.38683765312914     11.90126194395798
  H   4.60003737628099     16.95307700948722     11.41791045415318
  H   6.20502627245260     17.05349786384988     12.22628390295515
  H   5.80446973367755     15.62873519209600     11.21773361628141
  H   4.28886256511496     15.02996434110728     12.87813570151675
