56
Coordinates from ORCA-job CICWAP-OH_1_3_tpss_d4_lanl2dz_631gpol_Mn2.opt
  Mn  5.70236642288783     14.45400182637183     14.43618156131927
  S   9.81854766522610     15.88421607231149     15.07945480983284
  N   4.13265965226809     16.37063652025889     16.38745056166029
  N   4.96146921817564     15.33115600583534     16.10993800127201
  N   6.79108094278526     13.56529946885098     15.93088042562197
  N   7.79488717114080     12.66793644629761     16.00583406551027
  N   7.41710816234206     13.30706668057395     12.05375089016767
  N   6.51822737729393     13.22024593119115     13.06915808860807
  N   4.54478796241524     12.83370672702209     14.62254520165303
  N   3.59665607257306     12.43447364200540     15.50140378727454
  N   7.09605881181371     15.77285236028964     14.33929696009739
  O   4.60960969158096     15.24542011627206     13.24162103457644
  C   3.52948660956876     17.17784215499746     15.32277185902182
  H   3.73564012400649     16.67333744605182     14.37354365359667
  H   3.98552567007087     18.17451917197333     15.32395255900994
  H   2.45158180940776     17.26328182631396     15.50035445640958
  C   3.24444362521837     17.71067262114960     18.31033432803688
  H   2.18051822537879     17.59385804072117     18.06060303710320
  H   3.57020436990678     18.69005944711048     17.93306122001846
  H   3.34092996875288     17.71634396600016     19.40037610082529
  C   4.07408962659939     16.60435897754809     17.73699309756413
  C   4.90704158705088     15.67187625451921     18.35191684407956
  H   5.10770012385704     15.58444294632918     19.41138989547328
  C   5.45281532045534     14.90783843581219     17.30593360695902
  C   6.47845036487951     13.89093710811558     17.20353011575710
  C   7.31184073608289     13.18661814973639     18.09703005899096
  H   7.31943843746818     13.23605278631810     19.17755521472417
  C   8.16264394078898     12.42222437191756     17.29948961780051
  C   9.30484879857449     11.51877603916503     17.64680872452164
  H   10.26541862183480     11.99073663343904     17.39719432650379
  H   9.24269515250456     10.56315683099119     17.10956978897162
  H   9.29901000109003     11.30865169402037     18.72079796390076
  C   8.09620583563396     14.56881914146603     11.73362363970917
  H   8.37500783217026     14.53577878864719     10.67753805899452
  H   8.98903253691279     14.69136573753049     12.35716088098552
  H   7.40031333437506     15.38747355790473     11.92256953166930
  C   8.45061248348954     11.91527705730672     10.23387462677766
  H   9.49024140320604     12.15334861828483     10.49540042927110
  H   8.16360659857493     12.54715409892214      9.38169741564366
  H   8.40913335001750     10.87130431974983      9.90816306092661
  C   7.52859088259512     12.11234276163407     11.39771898953563
  C   6.64615679509018     11.21841323766311     12.01211841351335
  H   6.47091812803869     10.18983922558702     11.72605966477057
  C   6.02528243662270     11.95028569303479     13.03381944036691
  C   4.95226414139600     11.71133413832783     13.98102611288714
  C   4.22915137697124     10.59808160698800     14.45028248645272
  H   4.31481660828108      9.56720558732049     14.13363485966399
  C   3.36046282203287     11.09207899769793     15.42710103789434
  C   2.31790018339421     10.41156627696879     16.25971901417536
  H   2.44167560797534      9.32627516089279     16.19358439367988
  H   1.30630739580348     10.65965872960501     15.90920234591560
  H   2.39357782161348     10.70203881065077     17.31576024358281
  C   8.24779277527030     15.83585319769221     14.68252617523855
  H   8.26232789212971     12.38652800875088     15.15048697171026
  H   3.17648904584373     13.12694621854032     16.11336634299305
  H   3.91491044856180     14.61147432932240     12.96110400677871
