54
Coordinates from ORCA-job CICWAP_1_2_tpss_d4_lanl2dz_631gpol_Mn2.opt
  Mn  5.97066205326495     14.22440656209313     14.67455099879920
  S   7.76124025101147     18.42016280690013     13.60171746719463
  N   4.37334867999267     16.23508019384307     16.41196210194980
  N   5.19070535277320     15.16206311830572     16.24326097366058
  N   7.01391077325262     13.46897805332079     16.16122707607578
  N   7.94474350263758     12.49149273433403     16.28062887428060
  N   7.50947309986456     13.20558661798010     12.13036160472053
  N   6.59445338320099     13.10613677136365     13.13625336590422
  N   4.73277546209363     12.69008043438718     14.77895626939550
  N   3.75826556850558     12.28733480782575     15.63141399184320
  N   6.71255440502853     15.85205825298281     14.10492434343255
  C   3.68412026312619     16.81759797444132     15.26296020684658
  H   4.34680527597936     16.73542311970866     14.39705615666264
  H   3.48745917684536     17.87194787745735     15.47154290354403
  H   2.73771747831186     16.29584386067761     15.07120637570434
  C   3.48726781502708     17.76417445418132     18.20155874011666
  H   2.42370279487124     17.62798024970352     17.96106919457962
  H   3.81868544433420     18.70883281208739     17.74777205905589
  H   3.58100003345811     17.86215255631666     19.28757277792417
  C   4.31809508344967     16.61059718641060     17.73078874052219
  C   5.15598400326635     15.74797544286348     18.43595566983111
  H   5.36564082706807     15.78238041393248     19.49679010986216
  C   5.69334892997929     14.87041285361418     17.47603196202208
  C   6.70788251775085     13.84392055686447     17.43173560869393
  C   7.47594913211166     13.09999350037531     18.35218042044713
  H   7.46906235372570     13.17129176457172     19.43167707787847
  C   8.26759351926457     12.24459196474902     17.58851847269298
  C   9.30157614375769     11.23470112427423     17.98146243824335
  H   10.30445336798644     11.53750474620575     17.64990749391405
  H   9.08433921453641     10.24747968524933     17.55125787450138
  H   9.32221142353068     11.13356737258293     19.07097756496713
  C   8.37739349036305     14.37871439555614     12.01295924792202
  H   9.18919846294281     14.12871343639170     11.32589257442715
  H   8.77928947019123     14.62779263879718     12.99765721572664
  H   7.80999647340204     15.23434528895826     11.63434715860442
  C   8.31444072369914     11.97825719121779     10.08367566067607
  H   9.37917689170473     11.94508873081171     10.35458178419361
  H   8.17163109778652     12.80542043969173      9.37506901858635
  H   8.06919833392402     11.04463958250056      9.56784659538833
  C   7.43671800568269     12.12606735566777     11.28855384464054
  C   6.43525004274519     11.28812565239157     11.78027130332378
  H   6.11783664888307     10.34742452449842     11.35035100667608
  C   5.93202510113417     11.93020845010165     12.92225989516484
  C   4.88744768856794     11.67447513736658     13.88915302294594
  C   3.98752548353541     10.63147111392179     14.18670175633442
  H   3.86120514553042      9.69332904236170     13.66288962824523
  C   3.26809031534548     11.05337685883087     15.30613246060733
  C   2.15357235609872     10.40526561829062     16.06855666680018
  H   2.01328904842677      9.37855635103287     15.71668726605632
  H   1.20669557412183     10.94488476963753     15.92658843916377
  H   2.36786169273802     10.37149794567506     17.14533628890337
  C   7.16131155762781     16.95491731093045     13.91857188241748
  H   8.32685260538960     12.07153128882422     15.44025926552089
  H   3.49956646015199     12.89984700693807     16.39797910240642
