60
Coordinates from ORCA-job CICWAP-CH3OH_1_4_tpss_d4_lanl2dz_631gpol_Mn2.opt
  Mn  6.00433043323688     14.43216804324711     14.54629207392522
  S   7.22164715593663     18.70172946383623     13.25619887440781
  N   4.60345423082380     16.35389428560190     16.55646497272825
  N   5.33067173117699     15.23967896245038     16.27156785499560
  N   7.23165696778917     13.35811832685344     16.22188968669376
  N   7.96421484147290     12.23721970261291     16.42560778813000
  N   7.70344279755080     13.29379087381797     12.12479235824470
  N   6.74725044599237     13.23564783763112     13.09357554073511
  N   4.86133816539932     12.79403190896071     14.75312222999052
  N   3.93800279167320     12.36249943034612     15.64718108790366
  N   6.93186567931479     16.02641420322621     14.11006662337508
  O   4.20725235140916     15.09372648440666     13.05569904062074
  C   4.09036771163212     17.21051924864242     15.48546252212134
  H   3.86427895961712     16.57960652433735     14.62218119851808
  H   4.83783288232024     17.96447758630547     15.21107748685500
  H   3.17935299621581     17.69930669382720     15.84260820311630
  C   3.82984943757247     17.75237008189387     18.49520802358857
  H   2.75829922365699     17.74029773279448     18.24965507586124
  H   4.24763288047331     18.70118051357267     18.13159556421131
  H   3.92717181305343     17.73362270918805     19.58521377302261
  C   4.54939478469486     16.57736372404415     17.90829119291559
  C   5.27139598398775     15.55473360097993     18.51706432273102
  H   5.44802613105374     15.43332454955523     19.57763683242954
  C   5.75987007828451     14.75168417774681     17.46816801683261
  C   6.66408441500344     13.61931068331520     17.42264972824116
  C   7.07501381353331     12.67237211355503     18.39007792765572
  H   6.79451284102735     12.62438955044461     19.43427343525209
  C   7.92287524656685     11.79492945267703     17.72054131734419
  C   8.70016080104243     10.60344961632368     18.19166048315085
  H   9.78257908196745     10.78884268810245     18.14557138994984
  H   8.48284250623731      9.71318583206151     17.58564477673305
  H   8.44137838282072     10.37878741771596     19.23114929385937
  C   8.43397201008741     14.53815004836333     11.87299036499412
  H   9.21996823901048     14.32417187641713     11.14565375296539
  H   8.86503258844307     14.89831926667725     12.81000613761579
  H   7.75533996304286     15.30079911034633     11.48001356607168
  C   8.81700141055003     11.85643758062003     10.37960267584329
  H   9.85456913016773     12.04147424993627     10.69070637819541
  H   8.60016087329412     12.50697341284241      9.52137494020429
  H   8.74592377386756     10.81755357793712     10.04255324091558
  C   7.85063545672986     12.08244749941971     11.50228240046556
  C   6.95512240238905     11.19857270746839     12.10782019694516
  H   6.81278900856441     10.15640123130005     11.85396319293728
  C   6.28284480085015     11.95084268984585     13.08457109514768
  C   5.24320504934191     11.68988643848202     14.05788422359681
  C   4.54336995536038     10.55861401557458     14.52569949680973
  H   4.62073820693303      9.53749364949316     14.17647904344917
  C   3.71121581712206     11.01899886521385     15.54762427553293
  C   2.71745229352182     10.30642289289355     16.41244218951937
  H   2.78434071932597      9.22760397526558     16.24152415585784
  H   1.68987895828520     10.62354583577412     16.18695502303626
  H   2.90517944428122     10.49644280206678     17.47783122901512
  C   7.05896327400924     17.16925738030768     13.76044899006533
  H   8.52953839789774     11.88019045653879     15.66310981641704
  H   3.56855604467114     13.02805206816887     16.31901150190561
  C   4.54375107543785     15.72798209091872     11.79510823371841
  H   3.63433704566040     15.91341404281571     11.21014478354498
  H   5.02200101974819     16.67588446487742     12.04895911513409
  H   5.24091475679617     15.10429049206778     11.21976237445767
  H   3.77168072207241     14.23924325829036     12.86425890949481
