151
QM: 49 at, MM: 102 at, Links: 8
Fe    4.284300    4.538500   10.521900
C     1.344200    5.878400    9.408000
C     0.824500    7.179200    9.396500
H    -0.030900    7.445000    9.078300
C     1.780100    7.992700    9.930300
C     4.183200    7.616500   10.593400
H     4.154200    8.615900   10.641800
C     5.518600    8.111600    8.516200
C     6.105100    7.303900    7.572400
H     6.496700    7.582900    6.752900
C     6.013700    5.995500    8.049000
N     2.828300    7.183000   10.259000
N     2.584400    5.874800    9.940400
N     5.106500    7.284700    9.516000
N     5.379800    5.971200    9.238000
N     4.687800    5.812500   12.160300
C     4.652300    7.138500   11.951200
C     5.019500    8.042800   12.916700
H     4.979300    8.975300   12.742000
C     5.446800    7.579300   14.147500
H     5.711300    8.187500   14.827400
C     5.485000    6.215900   14.372900
H     5.775500    5.871000   15.208300
C     5.093700    5.371800   13.361500
H     5.110800    4.435000   13.520600
C     7.224300    3.198600   11.635700
C     7.744100    1.897800   11.647300
H     8.599500    1.632000   11.965500
C     6.788500    1.084300   11.113400
C     4.385400    1.460500   10.450300
H     4.414400    0.461100   10.401900
C     3.050000    0.965400   12.527600
C     2.463400    1.773100   13.471400
H     2.071900    1.494100   14.290800
C     2.554900    3.081500   12.994700
N     5.740300    1.894000   10.784700
N     5.984200    3.202200   11.103300
N     3.462100    1.792300   11.527800
N     3.188800    3.105800   11.805800
N     3.880800    3.264500    8.883400
C     3.916300    1.938500    9.092600
C     3.549100    1.034200    8.127100
H     3.589300    0.101700    8.301800
C     3.121800    1.497700    6.896200
H     2.857200    0.889500    6.216300
C     3.083500    2.861100    6.670900
H     2.793000    3.206000    5.835400
C     3.474900    3.705200    7.682200
H     3.457700    4.642000    7.523100
C     0.038500    2.347300    9.076200
H     0.102000    1.512200    9.524400
C    -0.720200    2.454400    7.937700
H    -1.173600    1.695600    7.590500
C    -0.815900    3.674400    7.300100
H    -1.354000    3.757900    6.521500
C    -0.137100    4.772700    7.782200
H    -0.204200    5.606000    7.329500
C     0.647900    4.668700    8.928200
C     1.760100    9.447300   10.169200
C     1.332400   10.287900    9.153000
H     1.092800    9.924800    8.308100
C     1.256700   11.662100    9.368700
H     0.955200   12.235800    8.674200
C     1.617000   12.192200   10.587100
H     1.572200   13.130800   10.728100
C     2.045000   11.369900   11.599300
H     2.294300   11.740200   12.436900
C     2.112400    9.997400   11.405300
H     2.398400    9.431000   12.112800
C     5.328000    9.571000    8.530700
C     4.880500   10.197100    7.364000
H     4.709800    9.685200    6.582500
C     4.688000   11.573200    7.352700
H     4.418600   12.005200    6.553000
C     4.888000   12.312000    8.497500
H     4.708200   13.245200    8.493300
C     5.344700   11.707500    9.644300
H     5.498500   12.224900   10.427200
C     5.582300   10.338700    9.654900
H     5.921500    9.926600   10.439800
C     6.532200    4.780900    7.376900
C     6.513000    4.740000    5.982100
H     6.164500    5.473400    5.488200
C     7.002800    3.632600    5.322000
H     7.005300    3.614500    4.372900
C     7.489600    2.550600    6.024800
H     7.812600    1.786400    5.564000
C     7.504700    2.588800    7.399000
H     7.829000    1.842600    7.889300
C     7.044400    3.710700    8.067800
H     7.085100    3.739700    9.017200
C     0.711800    3.450000    9.583100
H     1.218100    3.367600   10.383000
C     8.530100    6.729700   11.967600
H     8.466500    7.564800   11.519300
C     9.288800    6.622600   13.106000
H     9.742200    7.381400   13.453300
C     9.384400    5.402600   13.743700
H     9.922600    5.319100   14.522300
C     8.705700    4.304300   13.261600
H     8.772700    3.471000   13.714200
C     7.920600    4.408300   12.115500
C     6.808400   -0.370300   10.874600
C     7.236200   -1.210900   11.890800
H     7.475700   -0.847800   12.735700
C     7.311900   -2.585100   11.675100
H     7.613400   -3.158800   12.369500
C     6.951600   -3.115200   10.456600
H     6.996300   -4.053800   10.315600
C     6.523500   -2.292900    9.444400
H     6.274300   -2.663200    8.606900
C     6.456200   -0.920400    9.638500
H     6.170100   -0.354000    8.931000
C     3.240500   -0.494000   12.513000
C     3.688000   -1.120100   13.679700
H     3.858800   -0.608200   14.461300
C     3.880600   -2.496200   13.691100
H     4.150000   -2.928200   14.490700
C     3.680600   -3.235000   12.546300
H     3.860300   -4.168200   12.550500
C     3.223900   -2.630500   11.399400
H     3.070100   -3.147900   10.616600
C     2.986300   -1.261700   11.388900
H     2.647000   -0.849600   10.603900
C     2.036400    4.296100   13.666900
C     2.055600    4.337000   15.061600
H     2.404100    3.603600   15.555500
C     1.565700    5.444400   15.721800
H     1.563300    5.462500   16.670900
C     1.079000    6.526400   15.018900
H     0.756000    7.290600   15.479800
C     1.063900    6.488200   13.644800
H     0.739600    7.234400   13.154400
C     1.524100    5.366300   12.976000
H     1.483400    5.337300   12.026500
C     7.856700    5.627000   11.460600
H     7.350500    5.709400   10.660800
C     3.333900    6.911200    4.770600
C     1.995500    7.441300    5.225200
F     1.961200    8.298200    6.125800
F     1.171700    6.495500    5.498700
F     1.351300    8.080300    4.179300
O     4.064400    7.760800    4.288700
O     3.510100    5.713100    4.968400
C    11.501000    6.893100    7.373700
C    10.027000    6.862200    7.794600
O    12.263300    6.297600    8.024000
O    11.734800    7.553900    6.401500
F     9.732300    7.886100    8.495400
F     9.721000    5.894600    8.548000
F     9.251200    6.767800    6.809800

QM/MM links (counting starts at zero)
  1   57
  4   58
  7   69
 10   80
 25  101
 28  102
 31  113
 34  124
