99
QM: 20 at, MM: 79 at, Links: 6
C     6.674700    5.557500    2.473900
H     6.282900    5.473200    1.612800
C     8.011100    5.441300    2.598400
H     8.541400    5.283900    1.825800
C     8.633600    5.551400    3.845200
H     9.573100    5.443100    3.935200
C     7.846600    5.818500    4.931400
H     8.233200    5.914100    5.794000
C     6.476900    5.949200    4.754300
C     4.224100    6.367900    5.496900
C     2.155800    6.383800    4.004200
Br    3.748000    5.744100    1.092800
Fe    3.850300    6.096600    3.626900
N     5.864000    5.792500    3.554100
N     5.609800    6.227500    5.762500
H     5.909200    6.320300    6.584600
O     3.497100    6.636900    6.416600
O     1.070100    6.549100    4.362800
P     3.395800    3.875500    3.988300
P     4.070300    8.340100    3.199800
C     4.477400    2.589300    3.273600
C     5.839000    2.531200    3.572100
H     6.228300    3.228800    4.085200
C     6.635200    1.491300    3.146000
H     7.552600    1.469800    3.390600
C     6.111300    0.477100    2.361400
H     6.657300   -0.242900    2.070400
C     4.794100    0.536800    2.017800
H     4.432200   -0.149900    1.468800
C     3.965700    1.556600    2.437900
H     3.055000    1.571200    2.170900
C     3.332400    3.377800    5.786500
C     4.290700    2.571200    6.392600
H     5.017900    2.225500    5.888500
C     4.170200    2.278700    7.744300
H     4.831400    1.743200    8.168900
C     3.115300    2.750000    8.470500
H     3.027800    2.517700    9.387100
C     2.178400    3.564100    7.871900
H     1.456200    3.912700    8.380400
C     2.291000    3.867600    6.544100
H     1.640200    4.426400    6.137600
C     1.719300    3.331400    3.417600
C     1.076900    2.253700    4.023700
H     1.488000    1.802700    4.751300
C    -0.150400    1.843000    3.567600
H    -0.578600    1.106500    3.987700
C    -0.779900    2.475100    2.511400
H    -1.628300    2.183200    2.199400
C    -0.133800    3.541900    1.924800
H    -0.545200    3.991200    1.195700
C     1.097500    3.974400    2.371900
H     1.517400    4.718500    1.956300
C     5.573200    8.738900    2.241400
C     6.858800    8.660800    2.808500
H     6.951600    8.513800    3.743100
C     7.978100    8.795700    2.028300
H     8.838800    8.761800    2.430400
C     7.870700    8.979600    0.673600
H     8.647800    9.064400    0.135000
C     6.617000    9.037300    0.106500
H     6.539100    9.166600   -0.831100
C     5.451000    8.910100    0.874700
H     4.595600    8.942400    0.465100
C     4.111400    9.477500    4.652300
C     5.103400   10.402700    4.899800
H     5.829700   10.481600    4.292200
C     5.062700   11.221900    6.020500
H     5.776100   11.822300    6.205100
C     3.977100   11.153500    6.862200
H     3.949800   11.703000    7.636300
C     2.937300   10.304700    6.598100
H     2.172500   10.306200    7.160700
C     2.994000    9.452700    5.525500
H     2.282700    8.843600    5.366400
C     2.719300    9.124800    2.218900
C     2.751300   10.495500    2.037400
H     3.452400   11.004800    2.425900
C     1.772700   11.131100    1.291700
H     1.821700   12.069400    1.149200
C     0.722500   10.404600    0.754600
H     0.038500   10.837700    0.258000
C     0.686500    9.057200    0.951200
H    -0.030600    8.552300    0.588100
C     1.669100    8.416700    1.666800
H     1.626200    7.473900    1.783800
C     5.785200    8.328500    8.461500
H     5.507500    8.650200    7.567300
H     6.486700    8.934400    8.806500
C     4.629900    8.325500    9.375100
H     4.801700    8.914400   10.152300
H     3.818500    8.646500    8.908500
C     4.457300    6.955800    9.807200
H     3.626200    6.577000    9.423100
H     4.397400    6.911300   10.794400
C     5.646100    6.190900    9.322600
H     6.255900    5.996000   10.078700
H     5.360000    5.332100    8.922000
O     6.302700    6.977000    8.362400

QM/MM links (counting starts at zero)
 18   20
 18   31
 18   42
 19   53
 19   64
 19   75
