191
QM: 71 at, MM: 120 at, Links: 4
C     6.351100   14.592700    6.513000
C     5.042400   12.818000    6.469400
C     4.273400   11.741800    6.284400
H     4.047600   11.484200    5.419400
C     3.810800   11.011900    7.351200
H     3.309000   10.245600    7.194800
C     4.080800   11.397500    8.654900
H     3.710000   10.913300    9.355700
C     4.862100   12.448100    8.927100
H     5.036800   12.666800    9.813400
C     5.431600   13.235100    7.887400
C     7.273400   15.739700    6.161900
C     7.567100   16.211900    4.899000
H     7.184200   15.860000    4.129000
C     8.549900   17.333300    4.874500
H     8.799100   17.736400    4.075000
C     9.060400   17.740600    6.039400
H     9.669600   18.442900    6.019200
C     8.759100   17.211300    7.253300
C     9.190600   17.423800    8.630400
C    10.267100   17.998300   10.377800
C    11.225700   18.551200   11.324900
H    11.952400   19.069700   11.063500
C    10.967700   18.246200   12.617700
H    11.509000   18.626100   13.271500
C     9.929100   17.384500   13.039600
H     9.838900   17.160100   13.936800
C     9.055700   16.884700   12.108700
H     8.343100   16.339800   12.353400
C     9.292200   17.244800   10.742500
C     8.534300   13.268600   10.249800
C    10.034000   12.261200    9.008700
C    10.984700   11.401400    8.418100
H    11.297300   10.651300    8.872100
C    11.401700   11.678800    7.247800
H    11.982500   11.076900    6.842100
C    11.048600   12.829800    6.526600
H    11.455500   13.016900    5.712500
C    10.074300   13.695500    7.046400
H     9.787900   14.456600    6.597200
C     9.570000   13.319700    8.298400
C     7.628000   13.764400   11.213300
C     7.425100   13.376800   12.544200
H     7.912900   12.670800   12.902200
C     6.507800   14.041800   13.319900
H     6.397300   13.804200   14.212600
C     5.749500   15.060900   12.783700
H     5.132300   15.499400   13.323600
C     5.883200   15.446500   11.452800
C     5.296200   16.446000   10.614500
C     4.034700   18.061300    9.762700
C     3.153700   19.001700    9.463300
H     2.520400   19.260400   10.093400
C     3.169300   19.629300    8.165000
H     2.608400   20.337200    7.942600
C     4.052100   19.113900    7.310400
H     4.012000   19.470600    6.453500
C     5.052500   18.100600    7.487300
H     5.647600   17.818400    6.831900
C     5.000300   17.587100    8.821000
Fe    7.295400   15.447700    8.978000
N     6.191600   14.348700    7.770400
N     7.805100   16.162700    7.277800
N     8.609400   16.774600    9.574900
N     8.606700   14.014200    9.095800
N     6.845400   14.746100   10.698900
N     5.771600   16.621100    9.441500
N     5.660200   13.717100    5.674700
N    10.231000   18.197000    9.016900
N     9.396600   12.208100   10.211700
N     4.235000   17.313600   10.933000
C     5.741600   13.612900    4.215900
H     5.628200   14.493100    3.825500
H     5.020700   13.047900    3.894800
C     7.085100   13.026600    3.769500
C     7.802500   12.204200    4.594200
H     7.508000   12.041300    5.461700
C     9.009400   11.590300    4.117900
H     9.448000   10.976700    4.660500
C     9.537700   11.879500    2.890400
C     8.820100   12.814100    2.122900
H     9.159500   13.058400    1.293300
C     7.630000   13.386600    2.544800
H     7.199100   14.013600    2.009900
C    10.750400   11.316800    2.324300
C    10.552000   10.539700    1.050600
H    10.170800   11.112800    0.381800
H     9.960700    9.801000    1.213900
H    11.399300   10.208200    0.742400
C    11.860100   12.347800    2.041300
H    11.472000   13.140000    1.663800
H    12.492600   11.974900    1.422100
H    12.308200   12.569500    2.860900
C    11.437600   10.248500    3.328600
H    12.240800    9.907000    2.932300
H    10.827500    9.525800    3.493400
H    11.649500   10.682500    4.159700
C    11.362300   18.848300    8.216700
H    11.682400   19.633000    8.688800
H    11.026000   19.131500    7.353100
C    12.567200   17.819300    8.012600
C    13.766900   18.051400    8.385500
H    13.937200   18.878300    8.775500
C    14.813100   17.201500    8.260300
H    15.649300   17.411700    8.609000
C    14.589500   15.977700    7.579900
C    13.314400   15.723900    7.242400
H    13.148600   14.936900    6.777900
C    12.234900   16.522700    7.525400
H    11.357500   16.241100    7.406400
C    15.711000   14.968400    7.403000
C    16.692200   15.481900    6.423200
H    16.469100   15.158100    5.548300
H    17.571200   15.179800    6.663000
H    16.671900   16.441700    6.425200
C    16.420100   14.702800    8.698500
H    16.790800   15.522000    9.031900
H    17.116800   14.063900    8.557400
H    15.789100   14.355700    9.338200
C    15.237200   13.620700    6.899400
H    14.648500   13.228300    7.541400
H    16.002000   13.046700    6.771500
H    14.784000   13.734800    6.064000
C     9.488400   11.155500   11.175200
H     9.505400   11.533200   12.067900
H    10.314200   10.664300   11.039600
C     8.317500   10.221000   11.044600
C     7.488900   10.161900    9.955900
H     7.574000   10.823700    9.309100
C     6.516400    9.164400    9.749000
H     5.981100    9.155000    8.989700
C     6.396900    8.216100   10.715200
C     7.235200    8.139400   11.839300
H     7.179200    7.459100   12.470400
C     8.145300    9.164400   11.918200
H     8.717800    9.146400   12.651300
C     5.361100    7.019900   10.535600
C     6.007700    5.941700    9.814400
H     6.147100    6.204200    8.899600
H     5.464100    5.155800    9.844000
H     6.862800    5.755500   10.220200
C     4.751300    6.453300   11.844700
H     4.157100    7.108200   12.225900
H     5.459900    6.270100   12.467100
H     4.269900    5.652700   11.654400
C     4.091200    7.476300    9.705500
H     4.066200    8.434100    9.659600
H     3.295000    7.154300   10.133800
H     4.144800    7.114300    8.817100
C     3.395700   17.467100   12.141400
H     3.132900   18.396700   12.235900
H     3.909800   17.220200   12.926100
C     2.133500   16.583700   12.057000
C     0.962700   17.071700   11.768500
H     0.895000   17.990900   11.649600
C    -0.178100   16.326000   11.627000
H    -0.982500   16.726600   11.386200
C    -0.101900   14.925200   11.852900
C     1.038200   14.445100   12.165900
H     1.102800   13.524000   12.273300
C     2.244300   15.232100   12.361900
H     3.037100   14.856600   12.671500
C    -1.383000   14.075200   11.746800
C    -2.325900   14.716600   10.698900
H    -2.169300   15.664200   10.667900
H    -3.236600   14.549700   10.944000
H    -2.148500   14.335600    9.836000
C    -1.038900   12.676300   11.248700
H    -0.103800   12.617700   11.068800
H    -1.535500   12.496700   10.441600
H    -1.284100   12.030500   11.917100
C    -2.068000   13.870600   13.123900
H    -1.879300   12.984900   13.444000
H    -3.014900   13.982800   13.029000
H    -1.727700   14.515300   13.748100
C     4.015800   17.778000    3.295900
F     3.610600   19.054900    3.481000
F     4.363400   17.144400    4.398200
F     3.032600   17.105100    2.691700
O     6.370200   18.661400    2.912200
O     5.886700   16.463700    2.109300
O     4.954800   18.437100    1.007000
S     5.481000   17.848800    2.155600
C     1.752600   12.971500    2.885000
F     1.084300   13.784000    2.155600
F     2.459300   13.658100    3.807600
F     0.827400   12.369400    3.668800
O     3.714900   12.627200    1.330900
O     3.386300   10.941000    3.067300
O     1.802600   11.129900    1.211100
S     2.751000   11.775200    2.012400

QM/MM links (counting starts at zero)
 67   71
 68   97
 69  123
 70  149
