83
QM: 47 at, MM: 36 at, Links: 4
Fe    6.597100   12.328500    9.684200
O     8.254400   13.423600   10.290300
O    11.660500   10.320300   11.419400
O    12.145500   12.454400   10.962800
N     7.792600   10.681100   10.289800
N     7.423300   12.493100    7.619700
C     9.397900   13.112300   10.769400
C     9.886400   11.793100   10.824400
C     9.030900   10.652600   10.669400
H     9.484100    9.748000   10.923800
C     7.050200    9.415800   10.298900
H     7.646400    8.660100   10.329800
H     6.434200    9.428900   11.156200
C    11.273800   11.430700   11.126500
C     6.670000   12.801500    6.551700
H     5.747200   12.849400    6.701500
C     7.201600   13.011900    5.294000
H     6.593600   13.273000    4.609700
C     8.552500   12.885700    5.110700
H     8.953200   13.069900    4.286900
C     9.339400   12.546200    6.190200
H    10.261900   12.431600    6.159200
C     8.740500   12.366400    7.413000
H     9.216500   12.153100    8.134800
O     4.939800   13.423600    9.078100
O     1.533600   10.320300    7.949100
O     1.048600   12.454400    8.405700
N     5.401600   10.681100    9.078600
C     3.796300   13.112300    8.599100
C     3.307800   11.793100    8.544100
C     4.163200   10.652600    8.699000
H     3.710000    9.748000    8.444600
C     6.144000    9.415800    9.069600
H     5.547800    8.660100    9.038600
H     6.760000    9.428900    8.212200
C     1.920300   11.430700    8.241900
N     5.770900   12.493100   11.748800
C     6.524200   12.801500   12.816800
H     7.447000   12.849400   12.667000
C     5.992600   13.011900   14.074400
H     6.600600   13.273000   14.758800
C     4.641600   12.885700   14.257800
H     4.241000   13.069900   15.081600
C     3.854800   12.546200   13.178300
H     2.932300   12.431600   13.209300
C     4.453700   12.366400   11.955500
H     3.977700   12.153100   11.233700
C    10.159900   14.238700   11.415800
C    10.535800   15.370600   10.705600
H    10.339600   15.405400    9.774600
C    11.190200   16.410600   11.360200
H    11.445900   17.160600   10.885100
C    11.451600   16.326500   12.714800
H    11.868900   17.044600   13.131800
C    11.049400   15.219700   13.427500
H    11.169800   15.173300   14.436000
C    10.407400   14.169500   12.780600
H    10.140000   13.418100   13.260900
C    13.518500   12.173400   11.355100
H    14.047600   11.793400   10.368600
H    13.569500   11.807900   12.305400
C    14.247900   13.451400   11.280200
H    15.183400   13.308900   11.536900
H    13.837300   14.098900   11.890200
H    14.210100   13.796000   10.363700
C     3.034300   14.238700    7.952700
C     2.658400   15.370600    8.662900
H     2.854500   15.405400    9.593800
C     2.004000   16.410600    8.008200
H     1.748300   17.160600    8.483400
C     1.742600   16.326500    6.653700
H     1.325300   17.044600    6.236600
C     2.144800   15.219700    5.941000
H     2.024400   15.173300    4.932500
C     2.786800   14.169500    6.587900
H     3.054200   13.418100    6.107500
C    -0.324300   12.173400    8.013400
H    -0.853400   11.793400    8.999900
H    -0.375300   11.807900    7.063000
C    -1.053800   13.451400    8.088300
H    -1.989300   13.308900    7.831600
H    -0.643100   14.098900    7.478300
H    -1.015900   13.796000    9.004800

QM/MM links (counting starts at zero)
  3   58
  6   47
 26   76
 28   65
