41
QM: 29 at, MM: 12 at, Links: 0
Fe    8.864100    4.467300    5.683500
P     8.685600    6.604300    6.557600
P     8.127300    3.769600    7.803400
P    10.960800    4.514800    6.699700
P     6.727900    4.059600    4.929900
P     9.264900    5.358300    3.627200
P     9.411500    2.467400    4.698000
C     9.938400    7.808100    6.013100
C     7.199000    7.618300    6.388300
C     8.922900    6.743100    8.400200
C     9.837200    5.716800    9.093600
C     9.113100    4.384700    9.252700
C     7.991200    1.985900    8.320600
C     6.471500    4.339000    8.366100
C    11.102200    5.549900    8.241100
C    11.599400    2.885700    7.354400
C    12.477100    5.087700    5.854000
C    10.212300    6.238800   10.446300
C     5.328600    5.198400    5.126500
C     5.899200    2.499000    5.501600
C     6.595300    3.750300    3.114600
C     7.815000    3.149300    2.421200
C     8.882800    4.230100    2.182500
C    10.889300    5.980400    3.046400
C     8.235500    6.817000    3.148700
C     8.373300    2.008700    3.239600
C    11.056800    2.372500    3.933000
C     9.435900    0.838300    5.581200
C     7.363100    2.613300    1.011700
F     5.520500    8.614800    3.569200
F     3.295900    8.140300    3.535100
F     4.711000    7.026100    2.216600
F     4.248600    9.229900    1.841500
B     4.431800    8.277400    2.796300
F     5.829400   -2.637900    5.501600
F     6.696500   -0.898000    4.410400
F     6.563900   -0.838300    6.570100
F     4.806900   -0.722300    5.501600
B     6.019600   -1.335600    5.490300
O     4.362000    0.796100    8.320600
O     6.476700    6.476000   11.367000

QM/MM links (counting starts at zero)
