70
Coordinates from ORCA-job ATOQIL-CH3OH_0_5_tpss_d4_lanl2dz_631gpol_Mn3.opt
  Mn  0.25898341452993      6.40957023215243      5.59034973042260
  Cl  -0.30778670450122      8.74583134203670      5.68823505875062
  O   1.49038320671450      6.46080976779139      4.13391179104018
  O   1.69252792108983      6.31067982668994      6.80327807303773
  O   4.12953862672516      6.56272202499370      8.15177216911728
  O   0.66960284189586      3.81607060774396      5.69453581300050
  N   2.32547593717214      5.30022950363016      2.27875355944712
  N   1.89181785974899      4.35792398999064      1.34443547060259
  N   -1.26081494126724      5.76752278673970      4.45839764631947
  N   -1.05063018861003      6.00234178289236      7.03555355013339
  C   6.42180685487176      6.30060520796414      2.41472237946815
  H   7.48094546491124      6.55002580989796      2.45063205473617
  C   5.98730804903033      5.16096132492326      1.72368973592362
  H   6.70792204829361      4.51920830421746      1.21886984068027
  C   4.63005311661441      4.83167604912535      1.67753100496974
  H   4.27427922054071      3.95481292082573      1.14502621213230
  C   3.69855173260768      5.65800727131934      2.32857514989744
  C   4.11642916119012      6.81556092645839      3.00934501191821
  H   3.38748415925227      7.46033492324841      3.48836698141298
  C   5.48135877567244      7.12091986204681      3.05090626125131
  H   5.80513148859520      8.01761100662008      3.57726461405783
  C   -0.12653333695021      3.16667973672522      0.73389983562183
  H   0.61116546895830      2.62060844840317      0.13541429654103
  H   -0.84155576546510      3.64840652771348      0.05481299711145
  H   -0.69368727203167      2.45661124922774      1.34913680556900
  C   0.60136330316114      4.16853200005882      1.58270123487087
  C   0.14566103407614      4.97508332097263      2.69075024188847
  C   1.31601945985307      5.66722448181220      3.12841635434721
  C   -1.12034975275578      5.08768497649735      3.31762606997298
  C   -2.28105822670565      4.38474322217447      2.69862703529658
  C   -2.78445428565402      4.80668425895242      1.45677020486927
  H   -2.32272402069022      5.65440876493869      0.95273570369192
  C   -3.88287394632174      4.15113568560621      0.88929438626276
  H   -4.27911380548365      4.48747526764754     -0.06742507919720
  C   -4.46771119736048      3.06208352012215      1.55013502030100
  H   -5.31865710260991      2.54866401038357      1.10538379573924
  C   -3.95596568144796      2.63173056553248      2.78258758702415
  H   -4.40542870512440      1.78186281753601      3.29363219917261
  C   -2.86977167981307      3.29510782314056      3.36269205655549
  H   -2.46802868723103      2.97570833303175      4.32260421419831
  C   -2.48852824929635      5.98588318781060      5.13007120186147
  C   -3.74345591384396      6.17799473209835      4.53002428748469
  H   -3.83654264708388      6.17774424714858      3.45003390562633
  C   -4.87069120398174      6.39384590382102      5.32701909652234
  H   -5.83672051053875      6.54943594904894      4.85066277914645
  C   -4.76012805036607      6.44315434376320      6.72418064267938
  H   -5.63766733996727      6.63810820890821      7.33741302833567
  C   -3.51093400038028      6.29844044268773      7.33217759716148
  H   -3.41638891290532      6.41772559610058      8.40911479375019
  C   -2.37561383607819      6.07499742234508      6.54076809492225
  C   -0.76526579575373      5.80204184491541      8.30255606372948
  H   -1.59180837711212      5.59198967672641      8.98785748362707
  C   0.53753013142334      5.85030166786526      8.88662411408611
  C   0.65278658192745      5.59484381851676     10.28280196435379
  H   -0.24774621175133      5.35406338639835     10.84701354126054
  C   1.88572344789916      5.66362217979332     10.90796953576649
  H   1.97752117706741      5.47200454459536     11.97477058284612
  C   3.02930110885492      6.01728221177496     10.16098481822985
  H   4.00411324201003      6.09870264614839     10.63799638495925
  C   2.95755411203576      6.28163988071399      8.79293658955893
  C   1.70460776078494      6.16337055369178      8.11028756757081
  C   4.12116351328376      7.51518371833379      7.05667599225941
  H   5.14363614111208      7.90618566669691      7.02784818294269
  H   3.41130385775499      8.32787003743224      7.24949734326305
  H   3.86992279402951      7.02456094687374      6.11287325581536
  C   2.02431882295526      3.44075482733695      5.35081456415176
  H   2.01416496348492      3.21213185217072      4.28207692967625
  H   2.72220425388937      4.26501273794585      5.54765687733502
  H   2.33204567105147      2.54430957553833      5.90747162318901
  H   0.64527962401280      3.90956771101340      6.66841408973080
