66
Coordinates from ORCA-job ATOQIL-OH_0_4_tpss_d4_lanl2dz_631gpol_Mn3.opt
  Mn  0.37032796254048      5.83240039982787      5.63093291480073
  Cl  -0.12305700784269      8.11887697859350      5.63877376670575
  O   1.53941141203706      6.12851142726921      4.16076980268370
  O   1.77306067206555      6.03192237912546      6.81870891636011
  O   4.16520018416389      6.63202065600409      8.15429100806110
  O   0.62651515795100      4.03594322927304      5.59682827664130
  N   2.34516410308012      5.07931452752008      2.22485419123072
  N   1.88970484708743      4.20096815685780      1.24073960505709
  N   -1.19775629948187      5.43650515148759      4.49056535261167
  N   -0.96721816399186      5.69316017015939      7.08072391949914
  C   6.41058462378106      6.20368209118215      2.23368106649221
  H   7.46213954445661      6.48569081906826      2.23573472395445
  C   5.97757017327621      5.09625048470267      1.49114722985417
  H   6.69185402291081      4.51212569931580      0.91275566790132
  C   4.63054873044877      4.72483613914593      1.48760863859586
  H   4.27613550679040      3.87090069510609      0.91834945372083
  C   3.70802884529889      5.47620604535678      2.23472129246186
  C   4.12314326637069      6.60092111704919      2.96967943333792
  H   3.39871890045955      7.18873298735494      3.52342929437690
  C   5.47833085323151      6.94914869039130      2.96670995295819
  H   5.80075251646690      7.82029865232183      3.53521989347279
  C   -0.13226455503389      3.01919969741135      0.62009057055049
  H   0.59495040350636      2.50715721330079     -0.01972537536796
  H   -0.86588656083190      3.52637495614211     -0.01944871095899
  H   -0.67959179635929      2.27664811585663      1.21446892729871
  C   0.60856089365975      3.98193657872087      1.50218734369153
  C   0.17981458920606      4.70957428300244      2.67266324670131
  C   1.35978256997416      5.37644788723189      3.12497662449689
  C   -1.07752826651306      4.81097950366931      3.31462026662452
  C   -2.25731838572161      4.16762543784723      2.66847715180746
  C   -2.75621711088284      4.65328134925197      1.44819917263105
  H   -2.27819601507933      5.51161511200283      0.97842441867645
  C   -3.87194759667243      4.04721809529967      0.85956701776448
  H   -4.26492689606579      4.43302129478731     -0.07968307538129
  C   -4.47805037714853      2.94433184669342      1.47679973915728
  H   -5.34263584176959      2.46984695659142      1.01536409299601
  C   -3.97041895620247      2.45040551404341      2.68690863338606
  H   -4.43660726503003      1.58981663880390      3.16382211340137
  C   -2.86749949345225      3.06430430725868      3.28925522674777
  H   -2.47121967593241      2.69659113502339      4.23399881422446
  C   -2.41007856006333      5.67581391714455      5.17418890960001
  C   -3.66584706654808      5.89412661290797      4.58126817982121
  H   -3.76287667845459      5.90889136030738      3.50221816837795
  C   -4.78881156721624      6.11303729799549      5.38165048863879
  H   -5.75391996368017      6.28324352437856      4.90847354332702
  C   -4.67457212207763      6.14256900498292      6.77904559479731
  H   -5.54890129654251      6.33249670969320      7.39839649706714
  C   -3.42452887759667      5.98427095931199      7.37961224023458
  H   -3.33096775068897      6.08732274784787      8.45796234597872
  C   -2.29008973841983      5.76047194475933      6.58480710702966
  C   -0.67637963636236      5.60947352882001      8.35487923420435
  H   -1.50030071449991      5.47476700215863      9.06039944717830
  C   0.62423129957679      5.73728624427972      8.93346446802471
  C   0.73785266639200      5.63921537362796     10.34592652644559
  H   -0.15290044980844      5.40654664839386     10.92846888761365
  C   1.95965395089948      5.84761071898367     10.96793669787517
  H   2.05076345928241      5.76952235674813     12.04901404006011
  C   3.08341863179534      6.19940411195771     10.19646519870861
  H   4.04547952688471      6.39628710093119     10.66529859897778
  C   3.00897610645627      6.31928181132477      8.80571891905604
  C   1.77827622001074      6.03092494883551      8.13792309091666
  C   4.10261317109956      7.40546642768611      6.92841963033647
  H   5.08282600103237      7.88922388976134      6.86314114768706
  H   3.30853721809057      8.15891880960544      6.98033368555227
  H   3.93611552202072      6.75660161111048      6.06437323612867
  H   1.44297113366631      3.87627291639371      6.11894351713605
