65
Coordinates from ORCA-job ATOQIL-oxo_0_3_tpss_d4_lanl2dz_631gpol_Mn3.opt
  Mn  0.26402175290783      6.14661386252150      5.64137924278347
  Cl  -0.52349461523764      8.37515797796812      5.30481279794611
  O   1.42670947467396      6.44018279163651      4.14310324873333
  O   1.51504325696799      6.79756667871401      6.83211517091111
  O   4.10708097140703      6.73992151867204      7.96180422721994
  O   0.74240293357974      4.58241842322024      5.78515194361027
  N   2.34793338771055      5.21298309048387      2.37079405534296
  N   1.97945211352185      4.18671002068782      1.50556273539783
  N   -1.27029108377522      5.56432797582166      4.51611909837799
  N   -1.06757763087811      5.95672128894485      7.05767116620028
  C   6.33641376940428      6.58380862495500      2.37216599846173
  H   7.36861729244640      6.93024700881727      2.37332855350482
  C   6.00636816594055      5.35109354815545      1.79165711469365
  H   6.78248415597243      4.73340001933506      1.34205192915416
  C   4.68474667730301      4.89730591038912      1.78854163829608
  H   4.40951826361846      3.94523031438289      1.34491322297597
  C   3.68395836929535      5.69268061317775      2.37076770230986
  C   3.99450562182104      6.94086504960146      2.93903655981204
  H   3.20966356333644      7.55745992954391      3.36451005675530
  C   5.32624454545675      7.37131513694872      2.93998882584900
  H   5.56778200667679      8.33912165705706      3.37692282647776
  C   0.04930314644464      2.80310461414214      1.00230295720441
  H   0.82099098712562      2.26016822406070      0.44559915416645
  H   -0.69579510205630      3.18083954179226      0.29050799861727
  H   -0.46877509006058      2.10744568876558      1.67457022275975
  C   0.70787567111075      3.91187733450003      1.77085842786527
  C   0.20515783478337      4.73515772598477      2.84053974269172
  C   1.32690146106278      5.54478825615179      3.22339451073230
  C   -1.09334448938551      4.85453086204989      3.40408512559925
  C   -2.22971759398082      4.15483414179480      2.74031111983799
  C   -2.65604477105908      4.55265651824850      1.46192304921303
  H   -2.15124028378737      5.37857227665535      0.96314282459131
  C   -3.73359714693737      3.90103661030782      0.85105098276126
  H   -4.07016702856173      4.21931022235227     -0.13426242219581
  C   -4.37330852046066      2.83913426520502      1.50532713501704
  H   -5.20740265781487      2.32855446632357      1.02673558221146
  C   -3.93805852787904      2.43206635999776      2.77462513963980
  H   -4.43027547677996      1.60306872232938      3.28044135111942
  C   -2.87432032484415      3.09253890593138      3.39747512108959
  H   -2.53613509031706      2.79142808305791      4.38730361194684
  C   -2.50105227951879      5.81685283096575      5.16239598033442
  C   -3.76220139799225      5.93765513188893      4.55894324764773
  H   -3.86493561531550      5.85120693912889      3.48345530799894
  C   -4.88601407617485      6.21104230035652      5.34644093084100
  H   -5.85552412019500      6.32005076178633      4.86424465185355
  C   -4.77114244881029      6.37806771899301      6.73324674566030
  H   -5.64824667386766      6.61327610945690      7.33265259783791
  C   -3.51597461857709      6.29405883640477      7.34373504501777
  H   -3.40798944539954      6.49546389918954      8.40759729464432
  C   -2.38891077050725      6.01736034091780      6.56288220480505
  C   -0.74370296192040      5.72297902400016      8.30066498198409
  H   -1.54030970196768      5.51164177897156      9.01958593351694
  C   0.60385377994040      5.71989164394810      8.79721092636833
  C   0.83221472388473      5.28659511837801     10.12303592550419
  H   -0.00571790893315      4.90683781719513     10.70586469581822
  C   2.11148085636984      5.33737900194086     10.67019222223905
  H   2.28859262545052      4.99021852801094     11.68571495780495
  C   3.18545916425133      5.82127721053797      9.90646167954225
  H   4.19510080471394      5.84711868025557     10.31065262243253
  C   3.00094481452535      6.28160397535967      8.59663625468461
  C   1.68767999304436      6.25826275690741      8.01728842293029
  C   4.17668758666947      6.77933575111243      6.50973019484453
  H   5.24668918481531      6.85385763216915      6.29659130034314
  H   3.63896216452063      7.64506974973713      6.11751708812606
  H   3.76472633224135      5.86165220170166      6.07692903753727
