38
Coordinates from ORCA-job DUMPOQ-CH3OH_0_1_tpss_d4_lanl2dz_631gpol_Co3.opt
  Co  2.92480404647246      3.63449249752677     10.89681387098414
  Cl  2.80728611980563      5.60686371189232     12.02136773881086
  O   1.69432750836084      4.93510970161359      8.44299393955856
  O   1.20324986899683      2.27618965838012     12.97140536954172
  O   4.34182766971815      4.74198969509435      8.79085925076757
  O   3.84464871515602      2.40671658201293     13.22358768419021
  N   1.50575417449128      4.23566779350892      9.61394554326690
  N   1.25459327725486      2.97633353234063     11.79440931271583
  O   3.03282328304421      1.95283483439916      9.78519561504262
  C   4.38511345847507      4.33902490977383      9.97160910066557
  C   5.65243254714047      4.27482408247289     10.75121938758359
  C   6.89371693314387      4.78728810848089     10.35220382485831
  C   7.99050691913018      4.63109373050148     11.20859645192360
  C   7.84996666375152      3.96391384943429     12.44072770334341
  C   6.61101636661204      3.44274763592350     12.83499985890235
  C   5.51156532491749      3.60727852303806     11.98348618680274
  C   4.12536703420589      3.10999327618200     12.23532503925830
  C   0.26571982693282      4.02796785787918      9.96744014006475
  C   0.11693013400028      3.28825390126815     11.23179524307583
  C   -0.89180562858673      4.54260620575193      9.16050704375427
  C   -1.22626427272531      2.95627545178855     11.81770739639341
  H   -1.09584795256260      2.46484227216571     12.78489792354509
  H   -1.79322564704527      2.28881692839770     11.15268967108245
  H   -1.82062922282403      3.86962514267072     11.95939343116188
  H   6.98486482082045      5.30145403105377      9.39738524497628
  H   8.96296532359786      5.03011452328024     10.92307797505909
  H   -0.75509548675748      4.28805620818378      8.10191877613801
  H   -1.84402343385854      4.13395008062834      9.51166124243419
  H   -0.93123995289120      5.63942878805793      9.22556727710469
  H   2.18699992761350      2.24580420315480     13.22524320263077
  H   8.71594103404755      3.85522909261226     13.09246644585729
  H   6.48596677644454      2.92511500566196     13.78401960289441
  H   2.70540299769388      4.99177857192709      8.41570954310201
  C   4.00635777635803      0.91976889373117     10.10920079950668
  H   5.02414324091685      1.32728625878211     10.10344258903065
  H   3.74441405480624      0.57682295394653     11.11061346360042
  H   3.90486679467813      0.10396128981350      9.38455515507948
  H   3.24670897866399      2.31768021666862      8.89972195529124
