32
Coordinates from ORCA-job DUMPOQ_0_3_tpss_d4_lanl2dz_631gpol_Co3.opt
  Co  2.72989242625018      4.32315437234993     11.30921335241074
  Cl  3.14100095300001      6.30452392029615     12.30333215134821
  O   1.68968234682589      4.88717791385222      8.49602729341210
  O   1.05677396955262      2.62755309497067     13.21494852292464
  O   4.24331620851939      4.87842519902290      8.99680307284536
  O   3.64471981677600      2.74064029524576     13.45159427425052
  N   1.48240598255117      4.30829551722474      9.71925584474951
  N   1.16012496547002      3.22151583119529     11.98678116312705
  C   4.30398367259736      4.42760804153467     10.14689325896032
  C   5.59315839295544      4.06284998660417     10.78621333171870
  C   6.87010071704494      4.26764790917779     10.24916037893987
  C   7.97733333737187      3.85703457940953     11.00221315987729
  C   7.80762566294911      3.25139140086928     12.26255785854788
  C   6.52777400118975      3.04573961484310     12.79303993869854
  C   5.42438900162602      3.46204220538046     12.03789081355114
  C   3.99669855371633      3.33453157927565     12.42485664789818
  C   0.26625003623673      3.86649372261762      9.93471815941960
  C   0.07812211931265      3.23514298429377     11.24400992248215
  C   -0.81526022401101      4.00245170752657      8.90343078322607
  C   -1.23588670208880      2.65033346330537     11.67649578813501
  H   -1.13777253344571      2.20823070278784     12.67040532637756
  H   -1.56791291971801      1.87554074095071     10.97124148785915
  H   -2.01229050781400      3.42773400636826     11.70641818826059
  H   6.98313016636465      4.73757127307421      9.27464624220730
  H   8.98275241830709      4.00630486921453     10.61154058439172
  H   -0.46863864489695      3.59130743706335      7.94616026939400
  H   -1.73411462800898      3.49353495731099      9.20794594209260
  H   -1.03582303382946      5.06544886361060      8.73155972720509
  H   2.02624674987277      2.64237224439092     13.52112631612000
  H   8.68421825361606      2.94053112295883     12.82889060640072
  H   6.37959607167388      2.58013117192013     13.76491678334450
  H   2.69480337003274      5.03753927135364      8.52121280982276
