34
Coordinates from ORCA-job DUMPOQ-OH_0_2_tpss_d4_lanl2dz_631gpol_Co3.opt
  Co  2.88597849705579      3.41108831545529     10.90691549999752
  Cl  2.82416373198784      5.49682968333881     11.85755876669960
  O   1.69254354267492      4.57979186667063      8.35810491323240
  O   1.04342241628344      2.39048181612009     13.11165375179099
  O   4.35968887211443      4.57661275698506      8.85630101512777
  O   3.73419807681490      2.45163583130158     13.37807420790626
  N   1.46440452133674      3.99572253872996      9.57691899168578
  N   1.14061684308769      2.94050458298277     11.86097374337146
  O   3.07820238382448      1.79938220501923     10.16782043471107
  C   4.42093767994608      4.10866265576745      9.99116961406194
  C   5.67317810198703      3.98158378320187     10.77997223207231
  C   6.94105473798650      4.39724206945240     10.35380687512455
  C   8.03038033722180      4.20550360167180     11.21251769107825
  C   7.85426479783248      3.61132775189458     12.47662511660888
  C   6.58564702608833      3.19893208550253     12.90267172796663
  C   5.49727660528141      3.38824630816840     12.04161449622602
  C   4.09305779884249      3.00398863060072     12.33892374323259
  C   0.21561590204783      3.83225181805775      9.91711146704021
  C   0.02643729030937      3.20924122149438     11.23655357962157
  C   -0.92215325699169      4.26733923262020      9.03770221750211
  C   -1.33625234608321      2.94244664627960     11.81043385696148
  H   -1.24726204323637      2.32699310740667     12.70904671927791
  H   -1.97294125048861      2.42640575042607     11.08003134813912
  H   -1.83190901588406      3.88620815208327     12.08138752810980
  H   7.05906798761692      4.85979154592343      9.37632824759603
  H   9.02558812445830      4.51991100702154     10.90217773072810
  H   -1.07508428138543      3.54696771686696      8.22096604333349
  H   -1.85500333043096      4.35529702740196      9.60322083457583
  H   -0.68055229462662      5.23393340268453      8.58015554473680
  H   2.01258810824650      2.30945594396529     13.37190927387199
  H   8.71524361461627      3.47340372964901     13.12876340346970
  H   6.43073208256890      2.74299249216461     13.87808773890868
  H   2.69599003697221      4.65308358102986      8.35522489576845
  H   4.01313870192419      1.49973114206148     10.19043674946407
