42
Coordinates from ORCA-job BIRKAQ-OH_0_1_tpss_d4_lanl2dz_631gpol_Mn2.opt
  N   4.31239116983501      6.66817917386007      7.97874218878816
  N   4.55353851021306      7.44675649783526     10.06488967475982
  N   3.20073700291511      8.70804461591832      6.94562222880476
  N   2.80587304276394      7.96043746634938      4.54248066940095
  N   1.64377676764392      9.74195967650886      3.83938866154050
  C   4.80624398327830      5.64047196235074      8.76303168407741
  C   5.11794304834012      4.31171095869416      8.43435945344212
  C   5.60657185363814      3.50718225389400      9.46160231857626
  C   5.77954977008777      3.99723271761866     10.77933895218327
  C   5.46433192614039      5.31340239351744     11.12327784006838
  C   4.97152184107578      6.12016639983068     10.09163811712945
  C   4.16052645161639      7.73070129082637      8.78300930722763
  C   3.53522135181611      8.91889142714848      8.24458581733824
  C   3.20575073023071     10.12354379465839      8.88103717558162
  C   2.51734418797273     11.09910887831919      8.14802254084440
  C   2.17134153901717     10.86788498126571      6.80844743182088
  C   2.53890493009049      9.64866401490534      6.22632114217372
  C   2.32199151023426      9.16390721420628      4.87978377955545
  C   1.68757218707959      8.85737780856657      2.76733799608786
  C   1.15945390458075      8.92714700586601      1.47341146754711
  C   1.39599054517902      7.82394533953242      0.65127299845636
  C   2.12840215294097      6.69884177615086      1.10360200344640
  C   2.65551562132631      6.63112445254799      2.39146844578416
  C   2.42913928503902      7.73489521703251      3.22940905923857
  Br  1.55046144378860      6.02298396132080      6.68550790702737
  Br  4.65194290895214      5.02631401281831      4.93797807146379
  Mn  3.77282750439089      7.08065831750450      6.09091740778698
  O   5.33353302669714      7.91132145255101      5.72951172308816
  H   4.97221850942303      3.95825976816515      7.41712805861932
  H   5.85922300763861      2.47017352008027      9.24949427499967
  H   6.16323938658010      3.32874305759896     11.54796850591732
  H   5.58991425543128      5.68523811629352     12.13810667485722
  H   3.47128846995904     10.29680199147133      9.92145194938753
  H   2.24808421853540     12.04070228659305      8.62069372967058
  H   1.63997305050348     11.62424211035100      6.23534352918500
  H   0.59329073806974      9.78882952079186      1.12577200507666
  H   1.00390990018951      7.82871846372842     -0.36418885343475
  H   2.27943374855239      5.86278065143813      0.42364877933116
  H   3.21616787194353      5.77675343909858      2.76164205620713
  H   4.51453549877853      8.07889164024608     10.85549035825296
  H   1.15916849644052     10.63133101522405      3.86321967972048
  H   5.88730465107065      7.24267935732045      5.26379318896923
