41
Coordinates from ORCA-job BIRKAQ-oxo_0_4_tpss_d4_lanl2dz_631gpol_Mn2.opt
  N   4.26681408843356      6.62796916745076      7.95850889378912
  N   4.50240938929022      7.40411099944887     10.04474644323369
  N   3.16725912161659      8.67794323393467      6.93059514945406
  N   2.73991790704158      7.91708239099805      4.54135923964981
  N   1.72943074857795      9.76869667519462      3.79275621469281
  C   4.83938594718087      5.62525916240479      8.72422356321436
  C   5.24773990635353      4.32539352677685      8.38508735262508
  C   5.79410699931933      3.54684882062939      9.40213939609501
  C   5.93717956586111      4.03322772832997     10.72472286768113
  C   5.53838140561185      5.32235441596193     11.07911547020347
  C   4.98987095105529      6.10370199648565     10.05593834532055
  C   4.08131580699502      7.67652430199472      8.77128099525348
  C   3.46741765630913      8.86894357452426      8.23535779510705
  C   3.14897804829674     10.07519243821733      8.87395887812580
  C   2.51543336908565     11.07622602056628      8.12681170078858
  C   2.21175816473549     10.86699624402602      6.77565528306547
  C   2.55876822973584      9.63810579375651      6.19804726544973
  C   2.33697931350356      9.15553149491461      4.85481136487049
  C   1.74339237822725      8.87578531638096      2.72908002865804
  C   1.26614655701525      8.98074420486554      1.41790115085033
  C   1.46157512282869      7.86794755434214      0.59934467260793
  C   2.10748103123552      6.69974172002739      1.07308620106492
  C   2.58120263960318      6.59642038428598      2.37849160663936
  C   2.39211283879423      7.70684320420817      3.21686967508377
  Br  1.23583082647089      6.35964264323327      6.92339694491283
  Br  3.97417675586417      4.74567096743806      5.08715448759263
  Mn  3.65909316572040      6.95809002298513      6.06220923230610
  O   5.16164803557551      7.53062481731591      5.60013868798891
  H   5.12675960350307      3.96566890600482      7.36779848737109
  H   6.11969299678789      2.53336646891473      9.17640292368574
  H   6.36876142340506      3.38521482708576     11.48541218379267
  H   5.64691494491684      5.69680199575966     12.09494626479051
  H   3.38488867793299     10.23080222614596      9.92398550273798
  H   2.25566705950460     12.02077031339405      8.59920012104776
  H   1.71668566213636     11.63912644258597      6.19158475903691
  H   0.76960203731118      9.87852951787014      1.05544797656238
  H   1.10756165026559      7.89929963537900     -0.42950631047533
  H   2.23550233514783      5.85807289660557      0.39537198988713
  H   3.07499219337567      5.70653061940793      2.75706982570310
  H   4.43452378700772      8.02654127457640     10.84103190354499
  H   1.31714165836662     10.69405605557190      3.79386546599030
