46
Coordinates from ORCA-job BIRKAQ-CH3OH_0_2_tpss_d4_lanl2dz_631gpol_Mn2.opt
  N   4.16155386886842      6.59917634318712      8.01258426278773
  N   4.34697195285196      7.35080723638550     10.12508395966119
  N   3.03776043628751      8.59197204581854      6.97409087218170
  N   2.65152501536668      7.88647951009387      4.60004505689730
  N   1.53124029174972      9.69252111461883      3.86253100011763
  C   4.66680426056664      5.56861543319322      8.80204744041615
  C   5.03124425548836      4.25526208271961      8.47030314713673
  C   5.51886000217770      3.44821806224809      9.49909720529827
  C   5.64291914300105      3.92212973298588     10.82524262743822
  C   5.27836124708158      5.22570251123119     11.17330344179927
  C   4.78850607984020      6.03157132400748     10.14074135891053
  C   3.95538036991057      7.64312428893910      8.84207676742894
  C   3.35349935810288      8.82422060263010      8.29761710864635
  C   3.07534714879511     10.04941236078955      8.91107215947226
  C   2.44209047633411     11.05896964343547      8.16845786156705
  C   2.10322964196180     10.82319045790477      6.82598640028019
  C   2.40400978992747      9.58337441522593      6.25448242756780
  C   2.17615473411599      9.10674905030604      4.92201262650247
  C   1.55731285196039      8.79073870611798      2.80416221888959
  C   1.04225257008261      8.86684933431008      1.50625852214516
  C   1.26063834388671      7.75768766658128      0.68536871956181
  C   1.96522307757041      6.62248240284397      1.14838152276040
  C   2.47931016399880      6.55020258790429      2.44336413035412
  C   2.27150846103024      7.65685492741211      3.28030206985436
  Br  1.20173720682809      6.09025742043790      6.85653537538989
  Br  4.07229451985131      4.76790030191992      5.07493231864737
  Mn  3.42987936271979      6.91666041547970      6.16878915241578
  O   5.32147501771122      7.62041011718431      5.53214588888198
  H   4.90983628272684      3.90084160216961      7.45018276936495
  H   5.80319674509060      2.42144424989496      9.27694223353898
  H   6.02328410244513      3.25526369221250     11.59698111591273
  H   5.36370459558344      5.58898959550117     12.19562243027268
  H   3.35124966655587     10.21664940734048      9.95056312746695
  H   2.22072117314353     12.01885135335693      8.62799536504964
  H   1.62130711515136     11.59762264404550      6.23233098755022
  H   0.49473988639314      9.73930425712761      1.15487503479145
  H   0.87396780553769      7.76773009724210     -0.33223842878219
  H   2.10497473652231      5.77830724824446      0.47585491510774
  H   3.01049481502362      5.67978128460263      2.81767054674103
  H   4.21275924871961      7.94662305392478     10.93297915627671
  H   1.03612935475478     10.57555357300235      3.88617748608022
  C   6.54708105700585      6.99107244574503      6.00063337180585
  H   7.40110158122036      7.47008686020819      5.50578903315098
  H   6.63200493585015      7.06489430511741      7.09167150753725
  H   6.46022305183627      5.94570671467605      5.69905643917992
  H   5.33936419837197      8.56085751967612      5.80176726594439
