40
Coordinates from ORCA-job BIRKAQ_0_2_tpss_d4_lanl2dz_631gpol_Mn2.opt
  N   4.15946753876037      6.63019782386663      7.96977289510775
  N   4.48366387539184      7.39448255334360     10.04855020547316
  N   3.09982301566234      8.67255941468521      6.93315967895041
  N   2.63533228868349      7.93564958081876      4.62339222320226
  N   1.71564104745576      9.79774269537408      3.76829714139833
  C   4.74588900640036      5.61688764678798      8.71063774200179
  C   5.11508718022401      4.31737555754343      8.33782962106981
  C   5.68711076597113      3.51385073183882      9.32417757360601
  C   5.88957920091255      3.98484662097914     10.64288431195223
  C   5.52959858289001      5.27992649960345     11.02635321675736
  C   4.95542571190874      6.08259290115935     10.03552761281222
  C   4.01334019613548      7.68217102440656      8.79463329625319
  C   3.42169741798456      8.88479598915870      8.25886861054722
  C   3.17614739754113     10.10737813827695      8.87677351731938
  C   2.58505154697845     11.14816450882380      8.13189506396520
  C   2.25028518145469     10.93665052079247      6.79029277709342
  C   2.51001078473247      9.69106777787376      6.20491027196184
  C   2.26594032717337      9.21027770865759      4.88144589300456
  C   1.72727134383265      8.85577128896083      2.74245984268088
  C   1.29760188240950      8.91171248370786      1.41264773795341
  C   1.47329726858810      7.75151186216989      0.65259675623156
  C   2.05536054327682      6.58368111415689      1.19772882821826
  C   2.48339773097028      6.53057696030900      2.52475716912715
  C   2.31162870695593      7.68653209090519      3.29749786590677
  Br  1.24056787005452      5.92806485960937      6.74797998763596
  Br  5.36266469483692      6.24011196681348      4.97220197310143
  Mn  3.36748332826841      6.99738558996672      6.17388328666193
  H   4.96461013894742      3.97566939166377      7.31802909662247
  H   5.98895035367315      2.49834700256195      9.07572408225889
  H   6.33957435162562      3.32225552924725     11.37980589713801
  H   5.68761590216125      5.63879057497443     12.04132521353732
  H   3.43761948659536     10.25782016455659      9.92239004031755
  H   2.38824339252122     12.10889340968999      8.60022767667650
  H   1.78824850460484     11.72902769972310      6.20441540533862
  H   0.84976866382002      9.80819367410470      0.98843561359527
  H   1.15381023908607      7.74957266679802     -0.38796547831803
  H   2.17389279010927      5.70750423755213      0.56344758692967
  H   2.94466419465502      5.64708631891663      2.95605594870635
  H   4.47160789318012      8.01969021498534     10.84549648649695
  H   1.36552965356664     10.74578320463618      3.70815733070661
