42
Coordinates from ORCA-job BIRKAQ-OH_0_3_tpss_d4_lanl2dz_631gpol_Mn2.opt
  N   4.31013932218975      6.66078379982222      7.97485440811623
  N   4.60187728102129      7.45939486853846     10.04785057362721
  N   3.16510654269589      8.69635679667964      6.95752437585585
  N   2.78879516709501      7.94614597915018      4.54568907880239
  N   1.59573454985591      9.71267282696600      3.85338650270422
  C   4.79758641770416      5.63387720505962      8.76300258982634
  C   5.07896673323754      4.29547531614377      8.44577904317716
  C   5.57281250089030      3.49462221707173      9.47328218033176
  C   5.77976127703324      3.99749161341780     10.78130288413371
  C   5.49473926552178      5.32317293863143     11.11454754983006
  C   4.99682228923441      6.12660950435032     10.08264235110326
  C   4.18758582214695      7.73508249855981      8.76997821049486
  C   3.55164019827466      8.92070784944984      8.23809447818196
  C   3.24540284458701     10.13689263946103      8.86635702702736
  C   2.52866064314824     11.09822685940075      8.14231629108996
  C   2.13985529513513     10.85185279539376      6.81568009471430
  C   2.49190800036120      9.62603758759486      6.23887733993735
  C   2.27573876441476      9.13563195920021      4.89315009849158
  C   1.67091370605170      8.84495431214264      2.77019184132472
  C   1.15502909128529      8.92221497503963      1.47166428125144
  C   1.42604631671891      7.83802510492245      0.63542877011602
  C   2.18026241062883      6.72381032712403      1.07893828526201
  C   2.69484500791149      6.64869536531295      2.37125848844714
  C   2.43314860648544      7.73288734319648      3.22477318333847
  Br  1.50533332105968      6.04956253935955      6.71032392377565
  Br  4.61377898590128      5.01561250769409      4.94703213982554
  Mn  3.74374009896969      7.06288617499138      6.09426680964623
  O   5.30597364815094      7.92701092945065      5.76704749168281
  H   4.90756868301406      3.93176128670353      7.43645294185289
  H   5.80228906731791      2.45062832690185      9.26964281348445
  H   6.16535716105623      3.33140772716234     11.55105877815289
  H   5.64511077848786      5.70443605275415     12.12250587766710
  H   3.54915460601306     10.32926691964757      9.89278730186501
  H   2.27437759233961     12.04638968311503      8.61028301838466
  H   1.59683408416236     11.60443556059469      6.24877414665345
  H   0.57335837986436      9.77633717890601      1.13104547150185
  H   1.04559462295729      7.84949196150878     -0.38437112837941
  H   2.35928551522199      5.90242172312613      0.38800789082198
  H   3.27154871133751      5.80182096839161      2.73317049195852
  H   4.58512090767938      8.09992862635530     10.83240881594290
  H   1.08869539865713     10.58917538267590      3.88522626050219
  H   5.87965038418062      7.26280376803149      5.32332702747558
