39
Coordinates from ORCA-job CEKNAH_1_4_tpss_d4_lanl2dz_631gpol_Fe3.opt
  Fe  2.28948041302619      3.77006105090158     -0.50939621700559
  Cl  4.37542735503496      3.58557125656453     -1.25449342064908
  Cl  0.07082936051535      3.63632832315084     -0.46132987956286
  N   2.65193043729996      4.64734637881426      1.40013100715603
  N   2.35699389944219      1.91018634915864      0.21946166840586
  N   2.18520506721328      5.54467238581897     -1.42257526407583
  C   1.74326884787627      5.48975188504056      1.95004168499511
  C   1.94495983725133      6.09971771925398      3.18542780123061
  C   3.13929630331909      5.83213651649432      3.88513217576784
  C   4.08261199133103      4.95524244531254      3.31134953485905
  C   3.79950791868139      4.38579349883523      2.07268598124291
  C   3.39063907638731      6.44122389163559      5.15618666814780
  N   3.59770231474706      6.94218765823236      6.19562357957900
  C   1.82700130402347      1.64161291653955      1.43883605369610
  C   1.76750539932548      0.35009445745985      1.94805952019287
  C   2.25879752887560     -0.71402947360766      1.16536316213384
  C   2.79168388899910     -0.42911043536733     -0.10666431346129
  C   2.82536083520684      0.89145619219501     -0.54306117982110
  C   2.21346556070942     -2.05793409509878      1.65499329043865
  N   2.17876120446324     -3.15747905651875      2.06020745428231
  C   3.00758327731672      6.55534367316855     -1.04655644965457
  C   3.03116418361771      7.77327262875883     -1.71569495818333
  C   2.18630751328703      7.95558340513371     -2.82887689459215
  C   1.34927701504366      6.89426411888185     -3.22469495131348
  C   1.37510414847285      5.70858297126072     -2.49765367621691
  C   2.18282641835724      9.19518603863895     -3.54396142975382
  N   2.17742342363329     10.21295052761140     -4.12578537316021
  H   0.83697388363368      5.65520860675433      1.37237271081018
  H   3.66300792538964      6.35803085365634     -0.20570190966746
  H   3.24263623983689      1.15904726765889     -1.50853685661829
  H   3.70039661202491      8.56230957127640     -1.38592861043707
  H   1.19415811353404      6.76749077277620      3.59802827578855
  H   1.33830855943418      0.17170980851209      2.92942827644358
  H   3.17617874087537     -1.21971829032839     -0.74399851190673
  H   5.01424348399607      4.72688192130141      3.82095872525090
  H   4.49618138363851      3.71088674487804      1.58120449385671
  H   0.73409386019827      4.87161144763691     -2.75565839343112
  H   1.43243143996785      2.48713312456002      1.99106063842533
  H   0.68757523401340      6.99019494304830     -4.08028441319238
