52
Coordinates from ORCA-job HIQGEU-OH_1_5_tpss_d4_lanl2dz_631gpol_Mn2.opt
  Mn  4.78045938135229      7.89543501981932      3.53575934790732
  Cl  6.21645881114174      9.78715684853305      3.78797418951001
  O   3.18243717556984      8.62459023066618      3.91569455981148
  N   6.31921728032436      6.95505607871514      2.42236104067073
  N   4.48679047170947      7.77636062093028      1.49130105169731
  N   2.54137586929667      8.77193232222541      0.81609052564928
  H   2.40454767044419      8.98006430062991      1.80952531658212
  H   1.99157678253811      9.27858742665334      0.13217039946421
  N   3.99823656076479      5.62237172941744      3.92720876059609
  N   5.14679316814896      6.92773567671543      5.36157034098882
  N   6.31003163157531      8.40307920371106      6.71269122744297
  H   6.28546405172149      9.09362503467997      5.94963126751762
  H   6.80834441698672      8.62827963739441      7.56529236831486
  C   5.69301239374765      7.21214699108806      1.24463780243489
  C   3.71659547641553      8.19925665452761      0.47825036912413
  C   4.16489977634919      7.99287274716254     -0.87447146158424
  H   3.53291735819077      8.31695876078569     -1.69793777672053
  C   5.38868118262982      7.40508864189840     -1.11756492707669
  H   5.71753484297492      7.26899079786082     -2.14564044402743
  C   6.23393621834627      6.99244357418376     -0.03604783507624
  C   7.54425561947363      6.43241902583010     -0.07647066477920
  C   8.17707436098033      6.18242677420536      1.14627610616493
  H   9.18455700957843      5.77201074015013      1.14986250686198
  C   7.56736873374073      6.46616505726919      2.39342676522221
  C   8.23135316176571      6.14621916162465     -1.38677481836042
  H   8.36181552384934      7.07042252162339     -1.96752332242286
  H   7.63697123394605      5.45471237421045     -2.00053438926207
  H   9.21873357068861      5.70156441067495     -1.22633497095796
  C   8.25210678222995      6.26877004776648      3.71558024880004
  H   8.21688711767621      7.20984278414308      4.28110666803249
  H   9.29419251531086      5.96024788559682      3.58741929098205
  H   7.72671350818232      5.50548173054495      4.30656663785336
  C   4.60106841132391      5.69486998404263      5.13900175924375
  C   5.78190321654387      7.18286776211717      6.52595279319327
  C   5.88006247704032      6.15105197314222      7.52801862438508
  H   6.38944723210552      6.37540623165783      8.46241077751716
  C   5.33980578544466      4.91032454084890      7.29853915981283
  H   5.42180696562134      4.13928246113868      8.06162635375904
  C   4.66915091800776      4.62597711322225      6.06617006231610
  C   4.06442764284430      3.39474623664505      5.68403808005969
  C   3.46113301467497      3.33616925343446      4.42673210260095
  H   2.98920354405552      2.41242337089454      4.09797001229805
  C   3.44064633119893      4.45734608521121      3.56308492415609
  C   4.07414067093844      2.20099612842850      6.60584727844221
  H   5.10185440002968      1.90769888957059      6.86260479416086
  H   3.57964052200288      1.34183885730644      6.14099563250049
  H   3.55326708009334      2.42733100718649      7.54702337774188
  C   2.81349431433554      4.40423786818547      2.19388117011873
  H   2.19303547736405      3.51062353743173      2.06968399074335
  H   3.59791511486605      4.38948915349541      1.42316520147069
  H   2.20135472366668      5.29770336724891      2.02014129121170
  H   2.61867250019150      7.97513136755351      4.38997643290650
