50
Coordinates from ORCA-job HIQGEU_1_2_tpss_d4_lanl2dz_631gpol_Mn2.opt
  Mn  4.82704408521438      7.55782972617456      3.57674809060430
  Cl  4.74936688362467      9.82411296478960      3.94459303688712
  N   6.36748457346772      6.79368513897904      2.36335325766891
  N   4.57424435093615      7.83600502952129      1.59667296265352
  N   2.76754069190996      9.16599737029945      1.04517394837023
  H   2.77142740127303      9.48339539881870      2.01557560137604
  H   2.32886968667026      9.79442761024988      0.38028478440927
  N   4.28169612455935      5.59327065120311      3.98146408808498
  N   5.16648330093898      6.98124441639213      5.46014860266717
  N   6.02684614835267      8.61990701813207      6.83447253387693
  H   5.80468637330134      9.29094039716537      6.09207185152381
  H   6.25237456268253      8.97803292324333      7.75502032404173
  C   5.72802642103159      7.20987413355756      1.23875906262514
  C   3.85544704694975      8.45583969921900      0.64619145738702
  C   4.23079109022304      8.32005961447882     -0.73693241357774
  H   3.61146176655091      8.79261323611070     -1.49590680485840
  C   5.36408572812503      7.62220523274673     -1.09106972349035
  H   5.63847802228833      7.53755950690656     -2.14017491711194
  C   6.19305225910945      7.04060810806233     -0.07851031868183
  C   7.42843376375628      6.34395562439984     -0.22933966380047
  C   8.06492314279948      5.90422743835401      0.93453110538540
  H   9.01159220517702      5.37344458768619      0.85664478664802
  C   7.53112644873402      6.13855127988883      2.22656515597558
  C   8.03028094916058      6.10549378764931     -1.59088210912763
  H   8.24863419343033      7.05830021211877     -2.09389186226497
  H   7.33812026401937      5.54635675291133     -2.23621230995034
  H   8.96354731701460      5.53779444709437     -1.51591851731319
  C   8.21287883589793      5.67494742546088      3.48549418241830
  H   8.26744117125588      6.49691498615033      4.21047622892109
  H   9.22346659080818      5.30648434755814      3.28287026436811
  H   7.63375033871729      4.86387914703385      3.95056566505491
  C   4.73317157582960      5.70636660250260      5.26491334240721
  C   5.61988752243860      7.34384407112291      6.67545922571939
  C   5.67659855761841      6.36121707870931      7.72849851229114
  H   6.05268788688969      6.66152182077492      8.70385725540878
  C   5.26162510578739      5.06703289714655      7.50657060843999
  H   5.31110132671196      4.34255568272792      8.31650134614734
  C   4.75421444269358      4.67891672714031      6.22348571371413
  C   4.25115438179052      3.41113005483487      5.80245502234919
  C   3.79702403151682      3.30568269114236      4.48625058857801
  H   3.40495315973254      2.35387936837042      4.13261784386624
  C   3.81554662456851      4.39943840062415      3.58185686262260
  C   4.20272884330781      2.23838845353924      6.74805812423425
  H   5.20259946435557      2.00622294425176      7.14107053318703
  H   3.81382523759129      1.34453286738953      6.24943187104251
  H   3.55607222394159      2.45822761441207      7.60962940710252
  C   3.32146111543799      4.27495816356862      2.16642693983209
  H   2.27439839265565      3.94321463356765      2.14884757844660
  H   3.90879114085050      3.52701727876580      1.61584293697179
  H   3.39685722830144      5.23809443705241      1.65228793686819
