52
Coordinates from ORCA-job HIQGEU-OH_1_1_tpss_d4_lanl2dz_631gpol_Mn2.opt
  Mn  4.68523852993136      7.60540129035944      3.52420678291866
  Cl  5.95652355353008      9.52457348269388      3.62263015184155
  O   3.04520399248444      8.29467192483096      3.77890257363975
  N   6.31236087025721      6.73531320535243      2.38093095592662
  N   4.50959809602865      7.70413736445192      1.55554757916193
  N   2.56939226127624      8.78766020396367      0.99215657451493
  H   2.42332376870728      8.87759058685890      2.00591144505138
  H   2.01943782520024      9.35008251617294      0.35418769058683
  N   4.15132332427493      5.66074091541276      3.94989016805879
  N   5.06265130158784      7.02864841108835      5.42294281266038
  N   6.09200164251653      8.59794587031571      6.76093438191304
  H   6.12438386117759      9.21138317162523      5.93600674433827
  H   6.57626229200601      8.87547185561642      7.60625048832651
  C   5.69397960807776      7.12993748398632      1.23933917313699
  C   3.73334517164988      8.23321785793304      0.59656989389775
  C   4.16731005717156      8.14591643017972     -0.77508632289905
  H   3.53342007852027      8.56577182678734     -1.55268102746150
  C   5.36708907941328      7.54837242387162     -1.09359599416574
  H   5.68071248075370      7.50107128194760     -2.13420411940055
  C   6.20667735033536      7.00669333708671     -0.06591230251563
  C   7.49096612048892      6.40120620495708     -0.17856447470291
  C   8.12176857977968      6.00305156843522      1.00536509005344
  H   9.10922060842751      5.54874314437702      0.95604744581533
  C   7.53094708961014      6.18551734598681      2.28038346422964
  C   8.15373718959037      6.21730740265367     -1.51998628702689
  H   8.32428709305380      7.18830524860077     -2.00642210558763
  H   7.52298605391220      5.62033935922491     -2.19368488293881
  H   9.12032069421474      5.71320601714104     -1.41747527187938
  C   8.21924358049733      5.80945194947965      3.56367626291710
  H   8.33196841798816      6.70381251327318      4.19152111854356
  H   9.20726092651246      5.37621366752949      3.37931631809556
  H   7.61385604615080      5.08419891356754      4.12483562252821
  C   4.61079407055420      5.76176148061612      5.22289405618320
  C   5.62369751089537      7.34783264381692      6.60652807452184
  C   5.68262272353600      6.34971486237308      7.64796818056317
  H   6.11750354977463      6.62225284921166      8.60683849388518
  C   5.20574018784238      5.07658849973641      7.43295830528980
  H   5.26448743655390      4.34175369042963      8.23299018883018
  C   4.64285723726999      4.71701320185588      6.16465999026525
  C   4.11990941784914      3.46370672512205      5.73121319572686
  C   3.64155285409228      3.38162130323082      4.41906898203048
  H   3.23383088996094      2.43914330214215      4.05959531383968
  C   3.66912507334010      4.48312737489673      3.52733912722389
  C   4.08454713550213      2.27248261193167      6.65421603027466
  H   5.09345076907365      2.02068737724386      7.01043400974970
  H   3.67027252413414      1.39361852081570      6.14962700234668
  H   3.46768927897202      2.48194326136609      7.53965143784231
  C   3.20195780508344      4.39745383932221      2.10137678018145
  H   2.55849128829412      3.52568637776252      1.94412657677640
  H   4.06861137482658      4.30930137388627      1.42942664251996
  H   2.65961543932854      5.30917315063523      1.82610875535279
  H   2.82981588798933      8.50701277784273      4.71099890701796
