56
Coordinates from ORCA-job HIQGEU-CH3OH_1_2_tpss_d4_lanl2dz_631gpol_Mn2.opt
  Mn  4.87298339631089      7.51482262625978      3.52392353470166
  Cl  5.89167732230106      9.60819509139096      3.64432894772706
  O   3.02868821647835      8.28524397647949      4.10033236378551
  N   6.43833472267991      6.83112697222142      2.46325909361921
  N   4.61618910490786      7.61903431127068      1.52085436946291
  N   2.63734914863973      8.54563761596862      0.78532083000554
  H   2.48664326604913      8.81327992382133      1.75700670114997
  H   2.15461967474851      9.09774200727238      0.08468488712526
  N   4.15279899022427      5.64152389186383      3.93026801273498
  N   5.31065834423173      6.87394021464420      5.36322814196876
  N   6.55367325443410      8.32731775105227      6.64177800432734
  H   6.50012112391289      8.97863690637710      5.84844046010833
  H   7.17735444338156      8.53510739899188      7.41184425168045
  C   5.85020604910962      7.10937366935438      1.27006900799578
  C   3.86750084482408      8.03613597826024      0.49266924170681
  C   4.35434739667449      7.89142386229654     -0.85259510914732
  H   3.72757214716011      8.22108907756193     -1.67802716188556
  C   5.60298354086333      7.35515432332786     -1.08961883637398
  H   5.96225864915919      7.26620624300728     -2.11261520984842
  C   6.42869041845139      6.93779821860407      0.00259480112482
  C   7.75415270645545      6.40421232570147     -0.01764826905229
  C   8.34755675667345      6.12554823636354      1.21486514039053
  H   9.36123189654449      5.73047514566767      1.23937426221441
  C   7.69099932584770      6.35248196045579      2.45359931181208
  C   8.48462526422307      6.17036121453987     -1.31528548051659
  H   8.61281622721078      7.11182086036679     -1.86840583944984
  H   7.92629205617053      5.48208335685714     -1.96571016497204
  H   9.47688594619279      5.74302611567334     -1.13675976724146
  C   8.34288263079473      6.09900700775053      3.78424295025225
  H   8.31040493089948      7.01604117966576      4.38720403180705
  H   9.38448320567523      5.78329713781109      3.66670111211930
  H   7.80007615988587      5.32030203440534      4.33821646633583
  C   4.76171552686577      5.64641963116117      5.15642330089393
  C   6.01735713888365      7.09553400891358      6.49038720569196
  C   6.14715354994190      6.04370681379928      7.46005954780537
  H   6.70156329642536      6.24031232467299      8.37511675509548
  C   5.58161556023086      4.80344341517797      7.23786858487251
  H   5.69559355784571      4.02046102230695      7.98411947099943
  C   4.85591685746322      4.54744770220653      6.03074760415126
  C   4.22123637593183      3.34192175496269      5.60183900837180
  C   3.59595806058445      3.35230113101480      4.35208958091707
  H   3.10475384112572      2.44863069872322      3.99617266668234
  C   3.57822738206470      4.49552067383137      3.51521767037336
  C   4.23152703285934      2.10865626139355      6.46812441547075
  H   5.26075702653006      1.78365145425949      6.67802836508714
  H   3.70361474084529      1.28031007729095      5.98403280643328
  H   3.74871147612518      2.30463528219677      7.43632616441851
  C   2.96009017095567      4.48730963067230      2.14297295851775
  H   2.18972012362051      3.71289047026366      2.05740667597492
  H   3.72927273243557      4.28189549626487      1.38344630070516
  H   2.52119456153478      5.46422159433114      1.90830170718310
  C   2.96012143400057      9.24646958355402      5.20589478669349
  H   1.91174271269308      9.52055719121069      5.36741050217898
  H   3.40085452888064      8.81068987502598      6.10898607896111
  H   3.54940604301608     10.10238603246625      4.87637751943904
  H   2.50414910802373      7.49493123901464      4.34702023741356
