56
Coordinates from ORCA-job HIQGEU-CH3OH_1_6_tpss_d4_lanl2dz_631gpol_Mn2.opt
  Mn  5.16171059687072      7.83737750361499      3.68661399348921
  Cl  6.05432303366289      9.95129925802398      4.34071808578482
  O   2.95269511752799      8.40929859906708      3.87464398055957
  N   6.75470186560516      6.94527335726660      2.32305676837400
  N   4.78341873979848      7.65398969016780      1.49763571015190
  N   2.69775918583629      8.37978981949325      0.85474597967793
  H   2.56348096985233      8.63181892901820      1.83704593469722
  H   2.09855419141888      8.81506691213060      0.16310002656752
  N   4.13642494791187      5.64866789032791      4.11759296567290
  N   5.37201282666553      6.80286721400812      5.61789351307555
  N   6.63504384368497      8.11989410088745      7.02534385041516
  H   6.57382310062304      8.87008188237806      6.32387685905413
  H   7.14534407553105      8.28398953041093      7.88430896622542
  C   6.01593852660637      7.15864060098966      1.20055864998501
  C   3.93276496793792      7.93436251825278      0.49990688105611
  C   4.30761018401386      7.72144301883794     -0.87053876777440
  H   3.59847818436780      7.95452300307753     -1.66171662078642
  C   5.55847339625541      7.22863847284892     -1.16438102733480
  H   5.84532968907418      7.07612922249134     -2.20274399804638
  C   6.48204337904748      6.92319408882922     -0.11696985920277
  C   7.81247714625168      6.43241169463284     -0.25959654561768
  C   8.55206623853267      6.22917004792007      0.90551071239816
  H   9.57458619564644      5.86353711264011      0.83742516576743
  C   8.01069008651532      6.49670524636927      2.18656232012220
  C   8.40118629853172      6.15718645234445     -1.62033959853697
  H   8.43905478021301      7.07505752610892     -2.22422249264711
  H   7.79498301888987      5.42587777343405     -2.17340812858566
  H   9.41954295703272      5.76373778117107     -1.53621544594668
  C   8.80100003362153      6.30729932968682      3.45412106326819
  H   8.87731184659171      7.26382187742173      3.98911300086396
  H   9.80899654811972      5.93264582307392      3.24923126820790
  H   8.28660202146390      5.59918105943177      4.11816616486580
  C   4.75268374478175      5.62266356141428      5.33332369552655
  C   6.03000502006879      6.94120880950232      6.78731182345050
  C   6.07702630266955      5.85423845830102      7.73170018173655
  H   6.60669804571058      5.99074076277673      8.67196101584478
  C   5.46192779778619      4.66327185863145      7.43323530938632
  H   5.50614430101618      3.84172093133390      8.14518936611670
  C   4.76747289059446      4.49464355502488      6.19318798762475
  C   4.10724187679618      3.31620420288666      5.74268120801872
  C   3.50498593669528      3.35613438937218      4.48516759861020
  H   2.99676095812624      2.47329635723859      4.10206507373222
  C   3.53575178790625      4.52634481410370      3.68912720629735
  C   4.06804298239094      2.07040126112710      6.59223648769239
  H   5.08337866371943      1.70787910368920      6.80689595668169
  H   3.51892153166251      1.26786922844903      6.08890783669799
  H   3.58001048866141      2.26677014193991      7.55734182321341
  C   2.92275563429400      4.56365663530437      2.31228041153580
  H   2.09655280778106      3.84950611716082      2.22019305237324
  H   3.68083322306042      4.29842469483465      1.56010810558850
  H   2.56482518765307      5.57132603332345      2.07307320189997
  C   2.59273291067264      9.40382624199890      4.88638770740038
  H   1.51063331430617      9.57462621361440      4.86229979413072
  H   2.91329221977759      9.06579419242241      5.87822421160917
  H   3.14093642167308     10.30728947012524      4.61570438725608
  H   2.57126795849301      7.54093562906657      4.12686718177429
