51
Coordinates from ORCA-job HIQGEU-oxo_1_2_tpss_d4_lanl2dz_631gpol_Mn2.opt
  Mn  4.57236515537466      7.65090946249720      3.58784404797642
  Cl  5.82851305874087      9.55293739860051      3.60482355485984
  O   3.06507289502986      8.16583321785110      3.80660215441307
  N   6.28335412548875      6.70244288432043      2.44119293059114
  N   4.50022282788944      7.71565999367386      1.60119399316541
  N   2.59884907152262      8.86156606396527      1.00880258577078
  H   2.42766553977443      8.94970561944233      2.01497995255654
  H   2.07561726415449      9.44100436434370      0.36367021802025
  N   4.12266533437655      5.69378517565769      3.98546383561392
  N   5.10463985199773      7.04465440665350      5.42087932678983
  N   6.13362286563446      8.62646191997363      6.74750177908153
  H   6.07166253902484      9.27432488056850      5.95461060923609
  H   6.59330459643277      8.92197965361712      7.60011521794968
  C   5.68445178489811      7.12541517655632      1.30270764556763
  C   3.75692324274184      8.28052551572630      0.63592399275524
  C   4.21262097909548      8.20653948007807     -0.72825655859639
  H   3.60112262223509      8.65200914813399     -1.50934718221922
  C   5.40672384112673      7.59260637732620     -1.03272970175345
  H   5.73978733862899      7.55555126858414     -2.06763674430592
  C   6.21604529867821      7.02088991723346      0.00125904962356
  C   7.49004487044947      6.39371523790761     -0.10991980503361
  C   8.09761117967721      5.95856909714218      1.07150131344087
  H   9.07562477630906      5.48398793999975      1.02544244303085
  C   7.49097760203069      6.12945370751238      2.34059874961250
  C   8.16391412812803      6.22371927984882     -1.44778975341183
  H   8.35770537931099      7.20052044813003     -1.91336991080639
  H   7.53016881666549      5.65120464868977     -2.13960377740635
  H   9.11977815517255      5.69992785615956     -1.34427696152526
  C   8.15707814236243      5.70703171813457      3.62250028312125
  H   8.31635915103108      6.58675682092879      4.26082311545194
  H   9.12188265384873      5.22527674803185      3.43545936492820
  H   7.51359724780687      5.00921945806491      4.17540927839642
  C   4.65530671922108      5.77728113145289      5.22855339899843
  C   5.69071584485989      7.37004055879744      6.58942822484592
  C   5.81298001196901      6.35709451163513      7.61176133221875
  H   6.27885940427076      6.62660077768392      8.55675270179013
  C   5.35098881274145      5.07777093336078      7.40076921219030
  H   5.45400639297356      4.33615428450901      8.18997526016296
  C   4.73710025227839      4.72309555685634      6.15460412388528
  C   4.19374104616349      3.47484007825719      5.73109671595144
  C   3.64707480586192      3.40982445803396      4.44433549656116
  H   3.22102186123351      2.47204009355668      4.09428995677688
  C   3.61793835507789      4.52469182602537      3.56911881455782
  C   4.20086511793955      2.27302630580751      6.64079012380706
  H   5.22379202645769      2.02329091601204      6.95581280666465
  H   3.77158836783423      1.39767786441386      6.14275219071398
  H   3.61667988076168      2.47037922723255      7.55085283798221
  C   3.05803265552180      4.46794488634504      2.17602291187407
  H   2.45892525210440      3.56464845784105      2.02334584113418
  H   3.87725615483312      4.46752156082562      1.44212011180357
  H   2.44145470225752      5.35389168599941      1.98264289118640
