56
Coordinates from ORCA-job AXUQOB_2_1_tpss_d4_lanl2dz_631gpol_Fe2.opt
  Fe  5.40408148154655      6.88048555153406      6.62869924880596
  O   5.40706610385893     11.30207660753650      6.38815966577554
  H   5.40358996455683     11.58788303097312      5.45042741078919
  N   5.40175835454414      8.15978829028566      8.11831669725057
  N   4.08427153386497      5.70778471622606      7.54601810076737
  O   5.39416828704455      5.97962334530328     10.96353659589921
  H   5.39407704110181      5.00985483953931     11.10716319103449
  N   6.72387207898536      5.71295996756821      7.55257381341955
  N   4.08004389880337      7.96690932159758      5.62511916263278
  N   6.72741873997669      7.96562733402468      5.62301712489917
  C   7.70542294679302      7.45507332715499      4.83261459286959
  H   7.68998389376421      6.38378636232957      4.67387460547259
  C   7.69742697415347      4.99624422896372      6.93539617253200
  H   7.68396772300424      4.99018582026653      5.85219150459131
  C   8.66775943076966      4.27280174470237      7.62569645996609
  H   9.41843482372757      3.71796528232821      7.06957519563017
  C   8.65502832257588      4.29513728529781      9.02320568935810
  H   9.42071863118746      3.78047174097910      9.59881096663562
  C   7.61391431674750      4.97067303235790      9.66873366610677
  H   7.55286841191278      5.00013716166341     10.75263433086997
  C   6.64624601717254      5.62762579608937      8.90643156556953
  C   5.39751616679673      6.22942311417111      9.57345494828757
  C   5.39810356977991      7.73336220799000      9.40277765792093
  C   5.39600314578488      8.60849806933093     10.48824426693376
  H   5.39286053223842      8.20347985905413     11.49446256738496
  C   5.39844322381625      9.98417643342223     10.23933756231422
  H   5.39717842406492     10.69321290112429     11.06402896743952
  C   5.40240880982348     10.43615532566789      8.91649837709301
  H   5.40421958631699     11.49173645317658      8.66673933091583
  C   5.40374358398507      9.49428153713497      7.88860939072389
  C   5.40564964060845      9.89027036960990      6.42772325796578
  C   3.09738029810104      7.45733139847755      4.84005827902641
  H   3.10868722927848      6.38565688483259      4.68472045098673
  C   2.12064460768263      8.24356586289137      4.23271660661499
  H   1.36259084571511      7.77236337164654      3.61312783484813
  C   2.13653952590243      9.62388001617571      4.45249988429099
  H   1.36662474830165     10.26696411740240      4.03276744900666
  C   3.18427465212490     10.16681318146598      5.20357137357362
  H   3.24570013443997     11.23514926401279      5.38874946305677
  C   6.65280918741233      9.31730104555965      5.73505270289481
  C   8.68180536335361      8.24016963975691      4.22323795638245
  H   9.43632752496685      7.76847846561792      3.59962966529010
  C   8.67013752113157      9.62009359737321      4.44610185431848
  H   9.44010966565050     10.26208434001575      4.02479669744452
  C   7.62593538766459     10.16421979844012      5.20123721150094
  H   7.56608299007824     11.23241648750319      5.38763870023958
  C   4.15343618366636      5.62504761515177      8.90036041610498
  C   3.18275678655213      4.96621133920416      9.65729336905095
  H   3.23641231480109      4.99779756648195     10.74154636149729
  C   2.14846141881054      4.28589729289926      9.00580492975326
  H   1.38040565150009      3.76997361765874      9.57715467404432
  C   2.14601711954309      4.25984651164146      7.60817685067632
  H   1.40171261032591      3.70032429611619      7.04816071510498
  C   3.11838522444070      4.98559342751489      6.92318207144995
  H   3.14060706974294      4.97639407902626      5.83994676118237
  C   4.15741027950644      9.31873572572989      5.73549563380498
