58
Coordinates from ORCA-job AXUQOB-OH_2_4_tpss_d4_lanl2dz_631gpol_Fe2.opt
  Fe  5.40011787953332      6.70179063006941      6.47356920749316
  O   5.23904015431806     11.25668367386661      6.39157588499202
  H   5.30597415119354     11.59276497002539      5.47334740334561
  O   5.22138788453032      5.48599158757353      5.17719838003418
  N   5.40425970873679      8.05159692816635      8.03588646166241
  N   3.89156380555916      5.61969118467511      7.71439523812548
  O   5.59303054774900      5.91125115746052     10.93780742951728
  H   5.48280148576375      4.95677905886850     11.13129760672335
  N   6.71728678822528      5.54676732150673      7.46268982010176
  N   4.13811947861503      7.89314823627309      5.42837332958814
  N   6.89940385512887      8.10341348104663      5.54978664307368
  C   8.00685690420271      7.69957892765840      4.89197706404371
  H   8.11374677509424      6.63139658702293      4.73992110013534
  C   7.70547728738354      4.89628512558617      6.79743293069058
  H   7.64697543416168      4.93414961202022      5.71401712059573
  C   8.72076399262593      4.20779907564279      7.45479694812667
  H   9.49345220735304      3.70404730119711      6.88036593652067
  C   8.71688176536957      4.19425884410640      8.85440140621141
  H   9.50606072828211      3.68972891931772      9.40738362240612
  C   7.67178618325689      4.82521624380621      9.53866170546234
  H   7.64013925065995      4.83248233052637     10.62329827796669
  C   6.66601850933440      5.47314997189344      8.81488573410045
  C   5.46239186274358      6.10394245796384      9.54167219155888
  C   5.44314028819870      7.61611979743327      9.32046019955193
  C   5.42345788536649      8.48792812335903     10.40928658001584
  H   5.45213864969745      8.08252250084666     11.41430284005823
  C   5.36260717205239      9.86275791857162     10.16763912192056
  H   5.34592518819433     10.56653714685511     10.99679809508284
  C   5.32519538378689     10.32195404901563      8.84976948809203
  H   5.28282064150962     11.37853968111084      8.61100319328460
  C   5.34915596325805      9.38836981943359      7.81193448262094
  C   5.35262209926890      9.84687722835738      6.35864333726368
  C   3.21948987116044      7.34145122417477      4.59887196196914
  H   3.32487996280982      6.27336866895154      4.43929547490275
  C   2.23748587596093      8.10526318279159      3.97015075475753
  H   1.52070630870812      7.62132327672489      3.31216540054322
  C   2.19786265644565      9.48141680109230      4.21282885773285
  H   1.42618248484577     10.10477456116095      3.76685582959266
  C   3.18668107280583     10.05494072675750      5.02075235041974
  H   3.19601069765066     11.12205385597005      5.21914752694309
  C   6.68784822327621      9.42706219090627      5.70565816406186
  C   8.96706758745924      8.59134846724089      4.41112166394465
  H   9.83906677303558      8.21635705288061      3.88193314868381
  C   8.78092462805860      9.95807203217883      4.63838907227465
  H   9.52057816369477     10.68381847856576      4.30779874693476
  C   7.61836553933223     10.38452440342219      5.29238036745964
  H   7.45033745835500     11.43796034979189      5.49524892257800
  C   4.11963007748136      5.53359861038950      9.03978934106209
  C   3.18033942629787      4.99259796784750      9.92253483021492
  H   3.35974876642285      4.99365818232938     10.99354172541508
  C   1.98598649788919      4.47841301227607      9.40093912893169
  H   1.23946655451319      4.05059304356351     10.06633287884540
  C   1.77040071981878      4.52309355721129      8.01982921126439
  H   0.86380634248246      4.12295480749008      7.57361192297732
  C   2.74685799453724      5.10893601965828      7.21273354998112
  H   2.62714762901415      5.17657783534454      6.13622380826623
  C   4.16546055528958      9.23628761617139      5.58990244401023
  H   5.42660822150063      4.57808418385142      5.49116413586639
