48
Coordinates from ORCA-job COMLAS-OH_2_1_tpss_d4_lanl2dz_631gpol_Co2.opt
  Co  5.07378314862345      2.31116379623500      3.13394915047224
  O   5.10258109958540      2.57928640431584      4.95255603100254
  N   4.99185478510876      2.02179952775815      1.18018885254771
  N   3.51519986967390      3.43812588936694      3.04849214088760
  N   2.50048598266329      3.09952207211265      2.19057944418788
  N   3.79300049185031      0.89896608996919      3.41132947814554
  N   2.76000967386114      0.76042458999875      2.52000799125346
  N   6.32088792103206      3.75075287269719      2.85156423510411
  N   7.31505345234011      3.58321626717090      1.92773234860647
  N   6.60446805305182      1.14316287603087      3.22427129528216
  N   7.56445500513642      1.24871154750059      2.25573906570249
  C   3.80693415602760      1.81173735674867      0.57337199345133
  C   3.70886723373220      1.61867416443250     -0.80559969878429
  H   2.74059586149648      1.45288508569131     -1.27157881591529
  C   4.88140371017906      1.64480968013970     -1.57140057611919
  H   4.83806514927615      1.49869759345427     -2.64801717308322
  C   6.11148715350606      1.86141627932475     -0.93584068088668
  H   7.03759950279573      1.88653853393669     -1.50506171528362
  C   6.12446317501841      2.04607151650835      0.44707531705143
  C   2.61180265173955      1.80882198953394      1.50931019799929
  H   1.68483312324379      1.62883190747987      0.96232144424794
  C   7.39388275001852      2.29265232075269      1.24863265108263
  H   8.27447126086756      2.29626882440709      0.60419296235448
  C   3.04569915876227      4.41807706098466      3.83053579585373
  H   3.66406466763501      4.81313794308475      4.62346152197906
  C   1.71899938701977      4.73377677926672      3.46956603257958
  H   1.08852768462119      5.49955500614624      3.90177655699961
  C   1.38900636852807      3.86079380607768      2.44798428545799
  H   0.48099767901426      3.73384254012148      1.87173908126674
  C   3.52057395365822      0.09116178865405      4.44331855928523
  H   4.18269022291838      0.07029817870963      5.29683133144089
  C   2.30749883066735     -0.59281684268643      4.21758140834162
  H   1.84343124093807     -1.33054607680079      4.85874662369774
  C   1.83190757254160     -0.12545351154614      3.00518944688127
  H   0.93863504722012     -0.36230007294017      2.44067200898861
  C   6.54356632041470      4.94064155292940      3.43290977164060
  H   5.88966600318461      5.28974477288360      4.21929579959341
  C   7.68518293878048      5.54865670617424      2.87514309677085
  H   8.10509947917856      6.51217793456200      3.13196522509863
  C   8.16376999204315      4.65598120233946      1.92940751760008
  H   9.01596476005036      4.69814657527226      1.26279854041751
  C   7.05238395966857      0.22894007606697      4.09999798493112
  H   6.46571035795690     -0.01840555715421      4.97318083219092
  C   8.30637089553180     -0.26444422378704      3.69005421882157
  H   8.90807141002872     -1.01519120513386      4.18502247514748
  C   8.61400607416692      0.41241756331187      2.52064340275165
  H   9.47146730472243      0.36231369298798      1.86133704007186
  H   6.04315347992030      2.71650712490957      5.19679550288502
