47
Coordinates from ORCA-job COMLAS-oxo_2_4_tpss_d4_lanl2dz_631gpol_Co2.opt
  Co  5.06071963616753      2.36088640592794      3.30493467300211
  O   5.14472793634601      2.61788302088849      4.90318741601618
  N   4.95415537004466      2.04776787316674      1.30662039659912
  N   3.39232251779070      3.57966338978405      3.04728165735283
  N   2.37030258550100      3.11862913187592      2.26828861093031
  N   3.70887988747990      0.79333796247674      3.47315008293575
  N   2.64125171782833      0.76998095961501      2.62168656399458
  N   6.40190256518817      3.87595445449556      2.85015671649907
  N   7.37703053144147      3.62118428459594      1.92883946886466
  N   6.71045957487879      1.08770599464459      3.26038823440762
  N   7.63599774744636      1.26999458737263      2.27293056850605
  C   3.75816112197273      1.82998027124185      0.71500258582052
  C   3.64662480942970      1.62170862521385     -0.66131642287415
  H   2.67167449002509      1.45058519975760     -1.11082270580492
  C   4.80558412781049      1.63857671886695     -1.44511943857982
  H   4.74749701856009      1.48000231118144     -2.51933581795495
  C   6.04051187633695      1.86217272392544     -0.82645249228640
  H   6.95979404721527      1.88099058457857     -1.40647567551195
  C   6.07799962708389      2.06333924578176      0.55500208133497
  C   2.53283249755578      1.82350396594752      1.61896934933280
  H   1.63494724238623      1.63006137338655      1.02921433867641
  C   7.39131216084336      2.31332386243360      1.28399703103080
  H   8.22034745992600      2.30055536204678      0.57408257375301
  C   2.92664860740690      4.68685521384418      3.64598935552381
  H   3.55466873295742      5.23421610699803      4.33606720673912
  C   1.60142211373249      4.94910014450685      3.24428127338146
  H   0.97392529127474      5.77715422999885      3.54634222093500
  C   1.26822039313668      3.92386695204809      2.37446330150446
  H   0.36138616656161      3.71147343640815      1.82208256428542
  C   3.47720288145106     -0.17054054063940      4.37804348910769
  H   4.18288713201487     -0.34163272824459      5.17993000702174
  C   2.26000253761991     -0.82653242821972      4.10504284365929
  H   1.82041371544812     -1.65122525551626      4.65032087717563
  C   1.74235672316162     -0.19586629117662      2.98574000262199
  H   0.83293738554955     -0.35819544554046      2.42081347085441
  C   6.72060229432482      5.05553877381005      3.40578522497696
  H   6.09908886932406      5.47128324467242      4.18761721111850
  C   7.90117233139376      5.57096150925751      2.83415991736438
  H   8.39034543177837      6.50744482849772      3.06738128943776
  C   8.30506746513568      4.62719689262770      1.90415154433720
  H   9.15140093923234      4.59384275886747      1.22958632167117
  C   7.25241533542465      0.20250312362235      4.11124781003889
  H   6.71062298502817     -0.09884607560191      4.99782129715654
  C   8.52923000940242     -0.19680559288627      3.66732651882035
  H   9.19586109391978     -0.90852859370265      4.13607448547333
  C   8.75306679172856      0.51146828815762      2.49829968668991
  H   9.59191822373369      0.52917913900527      1.81382228406032
