48
Coordinates from ORCA-job COMLAS-OH_2_3_tpss_d4_lanl2dz_631gpol_Co2.opt
  Co  5.06313830597437      2.35992982856882      3.30174502120632
  O   5.11573705911495      2.73748037904298      5.01985000484574
  N   4.96799768117748      2.05331210316673      1.31629249854340
  N   3.42560186322201      3.44069485430899      3.19864900708675
  N   2.42308636676059      3.09865234671327      2.33888102690617
  N   3.68517456018499      0.65316626753675      3.37792388778366
  N   2.61176593699148      0.72418326131173      2.53551811031960
  N   6.42727582483290      3.97300592844220      2.74238001651567
  N   7.43191299004148      3.63414115709936      1.88333413856404
  N   6.67058527347617      1.23645146149495      3.38941855770139
  N   7.59832683533518      1.30620436041569      2.39092781116101
  C   3.77669952168203      1.85744712831161      0.70888352560267
  C   3.68001125798689      1.65406434322218     -0.66965880920221
  H   2.70855100344727      1.50030400607158     -1.13297450019083
  C   4.85000834254457      1.65057457900060     -1.43683502875023
  H   4.80388481621919      1.49553482477233     -2.51220342647158
  C   6.08154651144961      1.84708075505788     -0.80089408779128
  H   7.00848765088397      1.84860300661529     -1.36919728909427
  C   6.10319205128297      2.04601350200801      0.58081163414555
  C   2.54581177799410      1.84284015356649      1.60460062288222
  H   1.64488640787165      1.72574924215750      0.99939912988776
  C   7.41095604619668      2.29174675708433      1.32541569121365
  H   8.25452450572418      2.19462333805863      0.63942660445581
  C   2.97173333020417      4.47460067874581      3.92210954155214
  H   3.59774976494695      4.90589875315378      4.69135267810558
  C   1.66109631456118      4.80785358370684      3.52444074479198
  H   1.04052617994408      5.60479367313131      3.91223879693060
  C   1.33110755282068      3.90347667995089      2.52877061596479
  H   0.43159859025514      3.77347737108348      1.94019658899185
  C   3.42031168404514     -0.37397807899349      4.19982088676085
  H   4.12363627593001     -0.63872310415260      4.97819230316282
  C   2.17874380575745     -0.96798913007623      3.88873299297941
  H   1.71265505669323     -1.81614093470489      4.37261980336269
  C   1.67857200827750     -0.23597281555902      2.82547764601062
  H   0.76209411561503     -0.32233586848457      2.25508394318043
  C   6.71827349246681      5.21620514857490      3.15690096075452
  H   6.06395212387929      5.71828325010192      3.85795357367115
  C   7.91002133904533      5.68120825963936      2.56049276195302
  H   8.38366270889551      6.64457884650295      2.69656422477829
  C   8.34891281566109      4.64372705572660      1.75460288430734
  H   9.21174613878084      4.54492266190119      1.10776013950742
  C   7.13230720619640      0.32598450910230      4.26645859370645
  H   6.56196394386982      0.09515398425940      5.15704886729077
  C   8.36492556937545     -0.19351527547861      3.83020331575670
  H   8.97302244207961     -0.94256159623156      4.31990176959938
  C   8.63902096912358      0.45444566232131      2.63522872514437
  H   9.47342718439044      0.37715029440003      1.94943135365479
  H   6.05240679679030      2.70720280735086      5.32649214076092
