58
Coordinates from ORCA-job MEPDAN-oxo_1_4_tpss_d4_lanl2dz_631gpol_Mn2.opt
  Mn  12.27553451058954      9.03244571116026     -0.06997810657951
  S   10.42790113283367      6.98789307175436      8.10219577710862
  S   9.55432380946776      6.18324057314571      2.42192749146739
  O   13.36854924073798      9.02873658334781      1.39939348881863
  N   9.26423000623187      7.83062623809271      5.87838455714275
  H   8.83741165858915      8.44274678864691      6.57730806874819
  N   9.45736471782369      8.42153975911046      4.65163460802937
  H   9.69767595520847      7.73000234902365      3.86956866393591
  N   11.50846771279165      7.11845957747866      0.56980528262431
  C   9.35442799474297     10.13577374755929      2.99019503165089
  N   10.69232631555886      9.97604823700637      0.99705964937164
  C   9.08419652832798      9.63854681246492      4.32017967196119
  H   8.57294244774324     10.24489619361747      5.06745538560323
  C   10.44180951174602      9.61470806039799      2.25848903302246
  H   11.15980869805600      8.92445451014657      2.69677688571869
  N   11.03004280644529      6.31843779278841      5.54920467004656
  H   10.71227108625986      6.11029704584871      4.59220274236479
  H   11.70289614905070      5.66830314714942      5.94663926614995
  C   10.28124885864912      6.99912902458684      6.44307657449432
  C   8.57469112553093     11.14848893120921      2.38825958197942
  H   7.74322944924067     11.59826768529089      2.92781746469379
  C   8.86606200664547     11.53338671485836      1.07933427931366
  H   8.27739700684104     12.29776147138192      0.57949605348178
  C   10.70865047296252      6.71598648532016      1.34946064363135
  C   9.91277136927512     10.90121636020007      0.39667933660769
  H   10.16182238160332     11.10733683098832     -0.64087290544001
  C   13.73514590887493     10.08027136285455      2.27548387825459
  H   12.93420795138220     10.83702426925057      2.33775701311077
  H   14.62437759793655     10.58369842499420      1.86518014675159
  C   14.04711221629225      9.50339848618668      3.66102748224909
  H   14.36739625975626     10.30190803989334      4.34407911230502
  H   14.84990570861763      8.75889177811254      3.59230445851381
  H   13.16431344700857      9.01001449439041      4.09287591810293
  S   13.93434667682940     11.22565777206887     -8.19489923008351
  S   15.06014895642921     11.78653316798750     -2.51923416965383
  O   11.46219274379692      9.21015901222998     -1.50080099887875
  N   15.11172274076268     10.22667744976297     -6.04879475365590
  H   15.46133791734012      9.60705748780817     -6.78281167167015
  N   14.95935992990763      9.62683938471294     -4.82258502805040
  H   14.74047148741809     10.30305544546260     -4.02455896249720
  N   13.13812505459144     11.03969626458906     -0.54856417821615
  C   15.14367296641151      7.92551132918908     -3.16313598245218
  N   13.87602414486953      8.08948977697106     -1.12875156899052
  C   15.35727693351112      8.41348092670867     -4.50739983083520
  H   15.85420252504989      7.81517972373584     -5.27045947479178
  C   14.05280667159504      8.41207855631672     -2.41303674538932
  H   13.26319413641998      9.02611112906555     -2.84511865299926
  N   13.49831577270578     11.87522072185125     -5.60423898924540
  H   13.84995619771028     12.01464070615651     -4.64693713367436
  H   12.85703381573875     12.58114798757145     -5.95515781239092
  C   14.14554991434787     11.15452102546767     -6.54245545535964
  C   15.99791950632430      6.97684614664876     -2.55901155146240
  H   16.83051172263851      6.55015761158878     -3.11528230028542
  C   15.78094183901084      6.63212114945494     -1.22466119472668
  H   16.42822650866457      5.91946852833100     -0.72085589284602
  C   13.92175506740770     11.35926174224276     -1.38248912619604
  C   14.73313486349441      7.24208826952750     -0.52329131651493
  H   14.54675986420158      7.07246212629144      0.53363081563108
