59
Coordinates from ORCA-job MEPDAN-OH_1_3_tpss_d4_lanl2dz_631gpol_Mn2.opt
  Mn  12.21332327052579      9.06458117156592     -0.02643210657304
  S   10.33154939590194      7.01538660362192      8.02747516940692
  S   9.70990762579435      5.99829717257275      2.36659116695559
  O   13.15339719169123      8.90239317358406      1.55157327395015
  N   9.21901623422713      7.76868034643433      5.74298460382566
  H   8.72943270033412      8.35976579421513      6.41818908492902
  N   9.44070685413432      8.38223109520569      4.52610372959250
  H   9.70643981801297      7.70425865923789      3.75483116071895
  N   11.30100099422354      7.39712477870750      0.47301770613026
  C   9.37605403390940     10.14951270549186      2.90683030666918
  N   10.75743396080040     10.03319121398888      0.93937951788487
  C   9.08974911372336      9.61281054408777      4.21785015217722
  H   8.56980265909349     10.19813124780003      4.97607276562904
  C   10.48912852158085      9.65932802795541      2.19874430232281
  H   11.22710541536799      8.98556936491625      2.63215160165025
  N   11.10822516308480      6.39175230041145      5.51239152579672
  H   10.86136141976133      6.16659769343969      4.53997394983305
  H   11.80583784482276      5.79272768053920      5.94537477849861
  C   10.26675987082640      7.01720852603322      6.36288764108928
  C   8.58113779212371     11.15240056760931      2.30431991445663
  H   7.72724454386170     11.57537464414952      2.82947659136836
  C   8.89578591198000     11.55358320010204      1.00513712516597
  H   8.30257227509793     12.30995326795546      0.49843749932312
  C   10.64751846410589      6.79456097004633      1.25887603080994
  C   9.96814755208585     10.95493212400668      0.33446561523780
  H   10.22662237752831     11.17071788871794     -0.69756387410891
  C   13.94075488459267      9.93932571016714      2.12996552016902
  H   13.34703879407147     10.86626131894019      2.21544376483166
  H   14.80237208690718     10.16767038034109      1.48127150885997
  C   14.41980131460819      9.48375819739095      3.50968281336766
  H   15.04000365063354     10.25949242105189      3.97953510592204
  H   15.01553907062150      8.56555805956897      3.42451403996553
  H   13.56513033383051      9.27568384529397      4.16879013435224
  S   14.10202908642117     11.16017308550126     -8.11138078019943
  S   14.69397744570722     12.13877998803109     -2.43825870198889
  O   11.25123709293179      9.19434420628275     -1.61265049414290
  N   15.17925106567253     10.36894488269754     -5.82612532201355
  H   15.65277790699626      9.76752958411818     -6.50375860597231
  N   14.95421225867754      9.76293340618455     -4.60760218337569
  H   14.67391221253877     10.44132433956079     -3.84194781578631
  N   13.08076884346861     10.72562073001801     -0.57478369505463
  C   15.05537070667230      8.01486802143013     -2.96733223723799
  N   13.68875433390091      8.11199684958523     -0.99042703608355
  C   15.32481178343583      8.54228877596403     -4.28680244196033
  H   15.85602875552610      7.95919825917933     -5.03901190936450
  C   13.92597085746653      8.47080187128054     -2.26174664200950
  H   13.14905802196122      9.09465275014065     -2.70276161291891
  N   13.33915192850496     11.81444949187424     -5.60060476517851
  H   13.57530673584304     12.01553938058389     -4.62047255432688
  H   12.65817142024883     12.43152182930257     -6.03437726265950
  C   14.15845794588670     11.15666364437342     -6.44587160284581
  C   15.89538175510274      7.05661455517216     -2.35424341926136
  H   16.76186964796277      6.66032546754160     -2.87977620423794
  C   15.60899765111062      6.66613126691065     -1.04562597162881
  H   16.23586034835686      5.94297031298840     -0.53099426931472
  C   13.74153776410024     11.33239416956370     -1.35014850892263
  C   14.51984113319329      7.23606014357466     -0.37704950073767
  H   14.27840696092722      7.03049771929102      0.66153738989129
  H   10.66065519752020      8.41415457369835     -1.66741597287707
