63
Coordinates from ORCA-job MEPDAN-CH3OH_1_4_tpss_d4_lanl2dz_631gpol_Mn2.opt
  Mn  12.17832665034418      8.94219838529026      0.03760243271110
  S   10.16147808444937      6.69111873549968      8.40281832194258
  S   10.39171114114836      5.49117272567518      2.69720330998106
  O   13.25471432066593      9.08060274212882      1.45102387364811
  N   9.26951620524041      7.27597078085015      5.96573914694440
  H   8.54361535606553      7.71731803120765      6.53165398467122
  N   9.53754368801146      7.94025546534855      4.77167384822357
  H   9.81789103627929      7.30117116771244      3.99958672146256
  N   11.48883006631784      7.03627176446557      0.58446888706225
  C   9.39045862420177      9.83943401252268      3.26770059197386
  N   10.64290736570513      9.90851636706937      1.19556518025098
  C   9.13064090422684      9.19302587237610      4.51710966151673
  H   8.59079209249144      9.70549704822688      5.31063834187115
  C   10.39465221514580      9.35854613337264      2.39099443663306
  H   11.05379648537229      8.54320854448260      2.67399135997962
  N   11.43569044561697      6.40641450246744      6.03572539233264
  H   11.38073563273958      6.16362161428134      5.04297185167344
  H   12.16040257016655      5.93488450800228      6.56905679245094
  C   10.34060577730035      6.77777262521140      6.74420774599136
  C   8.68793336268171     11.00862003785564      2.86449419173147
  H   7.92778394279199     11.43871937836837      3.51394284607159
  C   8.97540459355483     11.58614399556889      1.63230271930046
  H   8.45358166873747     12.48057631402577      1.30170023775395
  C   11.04200292259153      6.38074665232039      1.47783135533886
  C   9.94610475558552     11.00434810374275      0.80417059460298
  H   10.22136720742476     11.42297841820245     -0.15960467839951
  C   13.92317547685241     10.31211572397022      1.76939320142827
  H   13.19702784723444     11.13898750732266      1.77002635787415
  H   14.68732441400395     10.52397713952473      1.00697394068547
  C   14.55877949475876     10.14222820490672      3.15045573720146
  H   15.09403643462642     11.06094071663423      3.42469404808920
  H   15.27101524392774      9.30837694545364      3.14502602368719
  H   13.78967802510554      9.94298041907555      3.90680571772717
  S   15.46846316333265     11.14626030172445     -8.09113889311514
  S   14.53805866855705     12.23661571784239     -2.34850104407046
  O   10.94337267571817      8.75957346017850     -1.63744152905861
  N   16.00928801957946     10.45887379849285     -5.58077338807692
  H   16.71902759693462      9.91959920400478     -6.07863585763801
  N   15.52698796781403      9.82306487056492     -4.44078691750204
  H   15.14608256509664     10.47745650697000     -3.72719386118341
  N   12.47404582853460     10.82718940519047     -1.00261439719697
  C   15.37573629522851      7.98299980762338     -2.87830734502223
  N   13.80865514385153      8.04787756726065     -1.03683785736902
  C   15.84992906969359      8.57010861209974     -4.09616072766957
  H   16.49915869477244      8.01985864001504     -4.77411397942070
  C   14.22926227184472      8.49705315064800     -2.22347778180212
  H   13.61844958374191      9.26807875550680     -2.68283307487048
  N   14.01656792422826     11.64761020568527     -5.86452017525458
  H   14.02675881679992     11.92562013266651     -4.87843001286702
  H   13.43408457593448     12.21710039199452     -6.47236785933655
  C   15.10993072591958     11.10707258860004     -6.46184220238649
  C   16.01727698987475      6.86811799376336     -2.27863235178228
  H   16.88095351751917      6.41157433028132     -2.75870091886383
  C   15.54988695242004      6.39157190542222     -1.05710388904201
  H   16.03060100601324      5.54849433596943     -0.56787048335742
  C   13.33335793377609     11.43666064987684     -1.57144674694498
  C   14.46420715600691      7.02364824028450     -0.43799123577952
  H   14.08412115617799      6.72392381537979      0.53332003832265
  C   9.63453220536487      8.11202618135552     -1.64593082841631
  H   9.80487302582512      7.10635939646725     -1.26299923667805
  H   8.93662713258739      8.65365599182134     -0.99734798474574
  H   9.26994181191577      8.08226930758198     -2.67755369844114
  H   10.88290747356914      9.68419415156399     -1.96541993484431
