57
Coordinates from ORCA-job MEPDAN_1_2_tpss_d4_lanl2dz_631gpol_Mn2.opt
  Mn  12.94497956952361      9.61568077580427      0.43096545867086
  S   8.06201818295663      6.08978770926126      7.25274328050162
  S   10.75910618836649      5.79543579231513      1.90012299855651
  O   14.26571154872744     10.08289587352593      1.50342805916537
  N   8.24947925731908      7.16352463946903      4.81934804015696
  H   7.35977247859760      7.56619798957362      5.11667655279632
  N   9.00345401310085      8.00968981136003      4.00309590701414
  H   9.44802181819474      7.53068105877555      3.20637175461966
  N   12.27510553624661      7.86806361269669      0.71661063644777
  C   9.73392644406879     10.21023394757090      3.25336493800495
  N   11.50655402617361     10.42387795532835      1.60762884557382
  C   8.97450539844466      9.35130947761799      4.10625952955170
  H   8.32418834169462      9.75773514278066      4.87737199140222
  C   10.80317547576868      9.69267885265667      2.48306308625366
  H   11.11668041809292      8.66332648202933      2.59358550722056
  N   10.18328644682368      6.10442545578047      5.58069466456118
  H   10.53313219745443      6.06106214370830      4.62201381022154
  H   10.62640613869127      5.48058799644499      6.24866718398188
  C   8.89923073819592      6.44571929084449      5.85369969048043
  C   9.46955828500958     11.60202370645955      3.14219581047828
  H   8.67676677734668     12.05939199314412      3.73094086726889
  C   10.22137111770549     12.36077512221037      2.25027265243681
  H   10.03567870295748     13.42488595501201      2.13092249632804
  C   11.64755515085702      6.97219006330505      1.20484508542004
  C   11.21452486333285     11.74742957957007      1.47593274053241
  H   11.79376077707585     12.29418521881658      0.73880145425451
  C   14.27314789339152     10.50495854532691      2.87171382615072
  H   13.42146780553092     11.17099858785063      3.07401904026103
  H   15.19785350662968     11.08384924797666      3.00476278260516
  C   14.25454785405299      9.29160244425492      3.80279904338707
  H   14.30896573197651      9.61610826655206      4.85042190593336
  H   15.11041903157571      8.63756523718286      3.59577180089654
  H   13.33319038024254      8.71090093636042      3.66328352250663
  S   14.54542866449634     10.15227645726770     -8.78009921858225
  S   11.69148165249255     11.38034820762660     -3.70302548576096
  N   14.83481514685483     10.46978168827614     -6.15642718035150
  H   15.80885038012789     10.56729984184724     -6.44430358393188
  N   14.66468732787508      9.94153119395181     -4.87961354211312
  H   13.89466685447552     10.37462225095422     -4.34448321134832
  N   12.06876485650948     10.41832459967038     -1.07234569460138
  C   15.45579547228405      8.64886701947720     -2.96623964455992
  N   14.38158712843739      8.83409551580515     -0.80186493054840
  C   15.51715016222387      9.06194436148178     -4.33376710652250
  H   16.25480661324623      8.63687442701169     -5.01071981258604
  C   14.59083505756952      9.28502272571547     -2.04475369538470
  H   14.05550340029445     10.18712052904145     -2.31175381946286
  N   12.74349910034590      9.67257359391401     -6.82928736832765
  H   12.36454338026846      9.84139933155588     -5.89768052176912
  H   12.07643361804403      9.48398878185592     -7.57091952190668
  C   13.97657383097379     10.07478971521922     -7.21150309799889
  C   16.20856372303438      7.54082216813398     -2.49346751899279
  H   16.89908965774902      7.02349088378533     -3.15685305668368
  C   16.03088903053356      7.11814792300936     -1.18007720905221
  H   16.59133028790241      6.27477499309147     -0.78573664513218
  C   11.87196205736078     10.81816941247163     -2.18429654536685
  C   15.09695603666987      7.76671781312718     -0.36187144972779
  H   14.89754446410224      7.45063765414181      0.65619489707099
