59
Coordinates from ORCA-job MEPDAN-OH_1_5_tpss_d4_lanl2dz_631gpol_Mn2.opt
  Mn  12.21663597289849      9.07203090035094     -0.04369197740534
  S   10.53604495255386      7.01474880977189      8.05405195798452
  S   9.50566476946408      6.24656356919100      2.40240946469197
  O   13.09960930998455      8.86343808736707      1.55865232800489
  N   9.31093257790626      7.87220721771229      5.86891421043727
  H   8.88837710448976      8.46723430960373      6.58466919949247
  N   9.46234670136102      8.47958271537043      4.64415041936537
  H   9.70140219384276      7.80450546851963      3.85232014003590
  N   11.25714028592628      7.16452558305616      0.35107197259882
  C   9.29360759774124     10.18773292815098      2.99200650234880
  N   10.60887833613465     10.03425569884892      0.98615428695242
  C   9.05385797755095      9.68947508531851      4.32690485115278
  H   8.54257107528890     10.28088105879246      5.08577669354244
  C   10.38887212223562      9.68676089871221      2.25676783463614
  H   11.15123764187234      9.03388817143475      2.68381249935305
  N   11.10001356020622      6.40247675021342      5.47887639312778
  H   10.77412578312950      6.20783631495363      4.52236979157930
  H   11.79517414018065      5.76138733147429      5.85135139351530
  C   10.35545634669224      7.05321430305623      6.39819321826339
  C   8.48102465317478     11.17195475518890      2.38629964790127
  H   7.64457873042859     11.60805704312022      2.92946995245665
  C   8.74522778567722     11.54433598954122      1.06742662457257
  H   8.13040182279560     12.28622925834252      0.56505122047910
  C   10.54563259010175      6.77275996386526      1.21880961808989
  C   9.79505775518281     10.92346061761169      0.37818604047772
  H   10.01902927065529     11.10837459706680     -0.66953351447187
  C   13.82804003521163      9.89955382578124      2.21460173367517
  H   13.20129084339410     10.80271838363194      2.31620851080109
  H   14.70866941184137     10.18483321096459      1.61718131915767
  C   14.25809696821712      9.39368392499959      3.59403115882872
  H   14.82682776372677     10.16695540298572      4.12864293212352
  H   14.88939958300091      8.50125355982973      3.49561684379478
  H   13.38133395801252      9.12390981093550      4.19966993840968
  S   14.00992280680529     11.22367004699105     -8.15889274610724
  S   14.95889880677198     11.88451391434751     -2.46851873109452
  O   11.29889995447418      9.20044038099420     -1.64596649151466
  N   15.14887450052642     10.27731379958018     -5.96856893009722
  H   15.54185723458124      9.66485100605020     -6.68630843188532
  N   14.97705967953900      9.67983679244901     -4.74306810941787
  H   14.72922185435555     10.35595499250869     -3.95593809116736
  N   13.07861687291526     10.98223067852351     -0.52867765127365
  C   15.15254255075149      7.98440298450392     -3.07407532602024
  N   13.85010660652449      8.13116203480755     -1.06077213058154
  C   15.38513572668791      8.47294329990296     -4.41463150354335
  H   15.90418503819967      7.87953525869288     -5.16663850108246
  C   14.04239597533496      8.45757113364673     -2.34332327075941
  H   13.24383490055544      9.05881400160397     -2.78102109251218
  N   13.46453934864591     11.87079215563704     -5.58902456485058
  H   13.77413208911812     12.02324009615148     -4.61988935529740
  H   12.81249185197133     12.55318347388615     -5.96548972961445
  C   14.16780987066422     11.16792844887807     -6.49965960917099
  C   16.00494308639205      7.04134238044666     -2.45694836199463
  H   16.85150304816347      6.62491422186843     -2.99987978084397
  C   15.76688623725255      6.68749715640967     -1.12864079290920
  H   16.41134334272131      5.97781709066880     -0.61690686140692
  C   13.84458241860115     11.36805634994854     -1.35083199536772
  C   14.70218443615714      7.28723840734895     -0.44332814860526
  H   14.49362727146898      7.11753525721651      0.61040217680454
  H   10.74554486993997      8.39598909117295     -1.74111517565966
