41
Coordinates from ORCA-job AFAROO_2_3_tpss_d4_lanl2dz_631gpol_Mn3.opt
  Mn  1.62434155189985      0.34703191518125     16.58716332834031
  C   3.13813732425843      1.31753871718306     17.08383763472163
  N   4.12565741984041      1.88100635901774     17.41144525229442
  N   1.64449320242602     -0.69544328685313     18.34244010683626
  H   2.56307964096500     -0.49287574358633     18.76371348139139
  C   0.59032514196132     -0.09094439039716     19.23870195252501
  H   0.80001250089446     -0.33659740739636     20.28689345769515
  H   -0.37034688135715     -0.54638485692375     18.96523278675136
  C   0.57236833711717      1.41274567852393     19.00911548794928
  H   -0.23238977556290      1.89523591993870     19.57767241870189
  H   1.52790966290249      1.87275871295192     19.28458790452934
  N   0.37946381871935      1.65222574673080     17.52978852340457
  H   -0.59297685807720      1.38723483733456     17.30092672551683
  C   0.51888651962200      3.11839487271829     17.18354231666585
  H   1.51079744463177      3.43038850846753     17.52735482587179
  H   -0.23998797990011      3.66845235509831     17.75506390058925
  C   0.34671455202446      3.37286595179347     15.68536606356793
  H   0.32298849870741      4.46093734454714     15.53898343074065
  H   -0.62993899194871      3.00368630712239     15.33223339464357
  C   1.48354200708133      2.82161211109588     14.82386491831703
  H   1.38226017179787      3.17010014330438     13.78779599078101
  H   2.45976700300146      3.13760558366489     15.20652521132784
  N   1.49594646358677      1.30819287771953     14.79797766672967
  H   0.61772930017998      1.01385269886902     14.33947669737766
  C   2.63817553263235      0.78084429539162     13.96197170790536
  H   3.55189797814649      1.25559510956447     14.33660960889726
  H   2.49700520752409      1.06011284366191     12.91029975259165
  C   2.68388405041299     -0.72988809931365     14.13471803246196
  H   3.53993639150064     -1.16988899270494     13.60850898363255
  H   1.76874642957934     -1.20212258700792     13.75430393744328
  N   2.76626407029754     -1.03744105852610     15.61046631160525
  H   3.73144686078466     -0.84240967228472     15.91487655262904
  C   2.48725399764144     -2.49337445880906     15.89739693888347
  H   3.19624710337843     -3.09418735086694     15.31257457418088
  H   1.47662053116951     -2.71067281278876     15.52612016842161
  C   2.60866125384450     -2.82157350428084     17.38692713624747
  H   2.53156993452229     -3.91168045155957     17.49214237470427
  H   3.60600868933918     -2.55058448298833     17.76641219341344
  C   1.51060289290407     -2.19640522535262     18.25020595762249
  H   0.51504772698816     -2.40980575050964     17.83789105301807
  H   1.54655127456278     -2.60213875773097     19.26987123907169
