41
Coordinates from ORCA-job AFAROO_2_5_tpss_d4_lanl2dz_631gpol_Mn3.opt
  Mn  1.76117399643551      0.43730173574997     16.63415645122423
  C   3.42944903946331      1.47148673441498     17.18284224144330
  N   4.43024709886441      2.01344776944152     17.50153238162465
  N   1.62092755193492     -0.70255933456247     18.35927013806097
  H   2.53263891764666     -0.49033146686472     18.79439324938747
  C   0.54678388852351     -0.10386337257454     19.23679370894324
  H   0.73555948118149     -0.35684462603394     20.28724925230076
  H   -0.40691046031889     -0.55673720135412     18.93790216172657
  C   0.53741761888197      1.40126639743097     19.01517854988408
  H   -0.27303952123675      1.88711644757327     19.57292620525334
  H   1.49180972787732      1.85772583101270     19.30394867932542
  N   0.36383938501877      1.64629680101658     17.53430020218890
  H   -0.58718057967706      1.34660869018108     17.27034071532223
  C   0.50248459800259      3.10745904040117     17.18083473423409
  H   1.49427227763048      3.42087125248525     17.52626145344348
  H   -0.25971058862793      3.65947095318346     17.74701658559071
  C   0.33268391950051      3.35856070008787     15.68048142266536
  H   0.30573892530702      4.44644626248613     15.53414377805119
  H   -0.64181873871548      2.98602665544543     15.32567953818420
  C   1.47452155475901      2.81319586644781     14.81991649006231
  H   1.36948180346287      3.16227987581428     13.78383927549745
  H   2.45018559565354      3.13334427126797     15.20297103661478
  N   1.49611759983504      1.30317387553616     14.79038721428208
  H   0.60603363716825      0.98386145890067     14.37813681081910
  C   2.62350300484757      0.76655530861291     13.94030809344270
  H   3.54756016915447      1.22825708296978     14.30868776293782
  H   2.47454987367689      1.05656571776235     12.89238384307681
  C   2.64709949513578     -0.74511168282334     14.10803200770418
  H   3.48643130364138     -1.19790790883566     13.56574460829145
  H   1.71662618248707     -1.20239752934833     13.74870479209430
  N   2.75579804104298     -1.05143082891031     15.58243126482909
  H   3.72691760764923     -0.85272357182635     15.87086292292429
  C   2.47220353617759     -2.49711479806254     15.89027397733297
  H   3.17930967445053     -3.10747255789277     15.31229990758448
  H   1.45955584168522     -2.71264661903118     15.52656508293815
  C   2.60250302916252     -2.81318275934412     17.38208025345191
  H   2.53613215551077     -3.90341335787936     17.49247017811966
  H   3.59907987211461     -2.53250110242586     17.75689773644741
  C   1.50094804036164     -2.19926658872777     18.24955037694411
  H   0.50667209324276     -2.41370811932471     17.83762912174535
  H   1.54710335108783     -2.61410530240022     19.26557579400481
