43
Coordinates from ORCA-job AFAROO-OH_2_2_tpss_d4_lanl2dz_631gpol_Mn3.opt
  Mn  1.43736652728961      0.26560969246538     16.50775598669437
  C   3.02931083655491      1.27550624691432     17.04601570361172
  N   3.99769849659093      1.85288670056704     17.39660691164777
  O   0.03945926265696     -0.68363858392730     16.00849303829602
  N   1.61824615717921     -0.68369312770325     18.32366095496480
  H   2.53895156271569     -0.42068833430735     18.70044119825152
  C   0.56209569383383     -0.09057882970260     19.21493945429951
  H   0.77088068735652     -0.34298760497947     20.26226166257980
  H   -0.39406714785714     -0.54660657826932     18.93071257520818
  C   0.54869988783639      1.41633935116612     19.00086229039566
  H   -0.24547097042801      1.89655694249897     19.58605473014191
  H   1.51021047850618      1.86592344913505     19.27282335286276
  N   0.33883844077170      1.67930799661900     17.53015633403501
  H   -0.64497033278761      1.46490045828220     17.31695013674865
  C   0.55534981588370      3.13244867570733     17.18691828645358
  H   1.55413934767413      3.39837903417845     17.54809523188725
  H   -0.18726073070503      3.71504218356539     17.74863224111758
  C   0.41959817470597      3.40797072618281     15.68842572880493
  H   0.41553469940851      4.49820088905184     15.55805876424772
  H   -0.55373341599903      3.05803075159301     15.30810783542005
  C   1.56812743627495      2.85370273552867     14.84289349847312
  H   1.50120279646728      3.23655585486721     13.81533537286173
  H   2.54085736689019      3.13615861648430     15.25918459539878
  N   1.54070075904128      1.35285485410379     14.76506107414707
  H   0.66421499220408      1.07738790597710     14.29946854964060
  C   2.67903868624570      0.79159184781021     13.95355078132038
  H   3.60371793273997      1.22918406094383     14.34687236415773
  H   2.56598041487802      1.08627672640516     12.90252615155859
  C   2.66035527291851     -0.72208487233423     14.11374148221164
  H   3.50435471143406     -1.19012523283268     13.59157820802161
  H   1.72702822313852     -1.15560890249922     13.73552219676567
  N   2.72915603457140     -1.03198348374944     15.58394339430990
  H   3.67155912362812     -0.78656932653561     15.91694167170322
  C   2.49130106268477     -2.48549588316011     15.88792162443818
  H   3.22179293473083     -3.06717394570538     15.30910779208849
  H   1.48471093391214     -2.72735568813017     15.53109985621077
  C   2.64648640358774     -2.78490797433996     17.38066081747601
  H   2.60541910817266     -3.87502424994780     17.50404887329383
  H   3.64169119826347     -2.47801727219605     17.73911083681910
  C   1.54581450118886     -2.18631649203783     18.25904008479909
  H   0.55172782868930     -2.44022751412768     17.87591043187810
  H   1.63805840311904     -2.56243435630416     19.28724987320099
  H   -0.93198359596835     -0.54947744725762     16.04280805155591
