42
Coordinates from ORCA-job AFAROO-oxo_2_3_tpss_d4_lanl2dz_631gpol_Mn3.opt
  Mn  1.44288488651416      0.26027702669273     16.52218739181570
  C   3.07155404185700      1.32269140159040     17.05900593795229
  N   4.06116591155816      1.87192381647665     17.39502301382215
  O   0.08478883512225     -0.54369456527429     16.07835010972604
  N   1.61892782898931     -0.70609667708702     18.33050244020352
  H   2.54700106344448     -0.44189773735804     18.69086476281305
  C   0.56893950565706     -0.09877962410029     19.22580834518354
  H   0.77869482750620     -0.36823230697914     20.26875339078572
  H   -0.39417059516877     -0.53268641637875     18.93241898726022
  C   0.58944703414802      1.40802452508507     19.02358970348596
  H   -0.19054557218990      1.90184993569076     19.61733432364231
  H   1.56269285305592      1.84134314280947     19.27922105472098
  N   0.35024671298008      1.67838665276504     17.56000910875335
  H   -0.62244235300820      1.41835593371872     17.34193381315523
  C   0.54367093118139      3.12399551644663     17.19325925074780
  H   1.54386548974226      3.41230394072310     17.53274736544427
  H   -0.20163973869271      3.69831512886162     17.76153261399517
  C   0.36596557448708      3.37388906072087     15.69364977430849
  H   0.34677488653799      4.46185952351883     15.54744865802472
  H   -0.61054301989825      3.00455779697904     15.34310796909630
  C   1.50454151032888      2.82360105480412     14.83126756563850
  H   1.41331111902688      3.19944510957645     13.80256018857545
  H   2.48244067749945      3.11467032008239     15.22831248602736
  N   1.49194030683940      1.32081797246112     14.75007274138071
  H   0.62024384957553      1.02762415351706     14.28597724011214
  C   2.65296005368085      0.77507505214344     13.95992793456821
  H   3.56327120856604      1.23543483266324     14.36005228694376
  H   2.54314278802682      1.05758684321635     12.90517460705763
  C   2.66314697620149     -0.73534417211427     14.13101336487715
  H   3.51883775353092     -1.19287610051455     13.61837515405257
  H   1.73906916141468     -1.19186608459155     13.75729195718184
  N   2.74231936867599     -1.04162884942237     15.60591269811095
  H   3.67844755632797     -0.77785268744465     15.94521574870853
  C   2.50457950772484     -2.49790362045889     15.90655596735269
  H   3.24644038049319     -3.07264768888828     15.33514550852873
  H   1.50374433613321     -2.73951305434065     15.52890701294309
  C   2.63447018629048     -2.81096301765342     17.39808398098651
  H   2.57945580767323     -3.90182862173198     17.50907509731173
  H   3.62734422541279     -2.51771333050974     17.77340471599084
  C   1.52685636526394     -2.20580540948827     18.26266813040001
  H   0.53173083129878     -2.44522834823745     17.86881648899805
  H   1.60182692619104     -2.58597042796951     19.29064110931597
