43
Coordinates from ORCA-job AFAROO-OH_2_4_tpss_d4_lanl2dz_631gpol_Mn3.opt
  Mn  1.47745864685904      0.28918714006389     16.53319100335464
  C   3.07561158415688      1.31696387346711     17.05840781015524
  N   4.05536711991479      1.87919110955105     17.39778386132788
  O   0.04834240957404     -0.70006086714457     16.08899552050798
  N   1.62678779444501     -0.69304102519234     18.33724838591962
  H   2.55277404957233     -0.44663022285645     18.71446553365141
  C   0.57409845445360     -0.08703473814413     19.22556790355726
  H   0.77462559269829     -0.35102609459040     20.27152851513555
  H   -0.38562412666249     -0.52445578958375     18.92705859991735
  C   0.58743578925971      1.42112984174081     19.02115552996912
  H   -0.19684794757241      1.91226237861296     19.61092409953654
  H   1.55770208120335      1.85704949194202     19.28425723060068
  N   0.36280753360455      1.69016139388103     17.55392482478230
  H   -0.60911082673310      1.42975791768362     17.33689447772795
  C   0.55008673959150      3.14004272791936     17.19697074102805
  H   1.54850537175906      3.42802174187006     17.54241140102832
  H   -0.19704549052190      3.71391166092925     17.76217247355686
  C   0.38599181925181      3.39729253785586     15.69696798290576
  H   0.37307074155789      4.48589968502670     15.55439945314682
  H   -0.59214301143299      3.03768756402757     15.33880089605980
  C   1.52304733909775      2.84222096183476     14.83557852185745
  H   1.43745058045761      3.22062388174345     13.80781265815272
  H   2.50075563797523      3.12881902752812     15.23651710727211
  N   1.50530361049926      1.33788065955550     14.75980858993100
  H   0.63649459177375      1.05348602519762     14.28672360303010
  C   2.65892768829525      0.78691784550718     13.95933793164328
  H   3.57314175523470      1.24231290768938     14.35648518024858
  H   2.54712263528146      1.07188197776731     12.90557122726718
  C   2.66528919659344     -0.72544047930511     14.12967840022538
  H   3.51343165628376     -1.18296949535881     13.60489966021010
  H   1.73684421941588     -1.17639534187282     13.76031266687039
  N   2.74894348805399     -1.03484341492840     15.59973844838864
  H   3.69436540147171     -0.79424765154434     15.92960827387628
  C   2.48988879853915     -2.48597590272280     15.89899921107632
  H   3.21696622972184     -3.07288339503475     15.32089081953733
  H   1.48148008786284     -2.70735421908111     15.53450027895228
  C   2.62685592262688     -2.79860296102874     17.39030643087195
  H   2.56897434503726     -3.88905238932111     17.50278563816095
  H   3.62195644434946     -2.50828554117842     17.76251980974886
  C   1.52092897204758     -2.19084738767370     18.25553478820333
  H   0.52867337317721     -2.41469653254062     17.85052384508638
  H   1.58649376728124     -2.57898243132657     19.28135476559515
  H   -0.79104006605625     -0.44005647096565     15.65693589992462
