32
Coordinates from ORCA-job CELHOS_1_4_tpss_d4_lanl2dz_631gpol_Fe3.opt
  Fe  1.96840635166856      3.70852538403488     15.16289570576331
  Cl  0.46862695642013      3.32783488893345     13.45144422187160
  Cl  3.98003948601926      3.15510467637506     14.42199743917811
  N   0.70086633850884      8.51922676066539     13.83094849270764
  H   0.91476065395562      9.31962065724753     13.23324236147424
  O   2.29491394899930      5.53080299237920     14.80202494209848
  N   0.58162211902599      0.95698933633294     17.83139093353076
  H   1.14338370999289      0.11468726346515     17.75663499812743
  H   0.06401790930648      1.06925594880099     18.69788298724878
  N   0.49935136981138      4.19875521745995     16.37923016294743
  C   0.08598264387394      6.36482489294734     15.43563355788860
  N   0.17616573811593      3.19060192170578     17.26408077789322
  H   -0.79029099643146      3.13837678647504     17.58869420816129
  C   1.35034484049855      6.42218560745526     14.75946576308209
  O   -2.13121624415358      7.22115674807127     17.27108366406053
  H   -3.03042080053097      7.28816983996560     17.65156112736561
  C   -0.23786954474197      5.27488446411613     16.32681893314150
  H   -1.11549934215858      5.38399871083832     16.96834833490817
  C   1.64201383522369      7.56102613246321     13.94205463695661
  C   -0.85716856808736      7.41869743880427     15.25096366726040
  C   -0.52204242511599      8.48849604680708     14.44415346146174
  H   -1.17874816018451      9.32821546515902     14.24756434364044
  N   1.88849933993976      2.11431074053429     16.20156027892758
  H   2.54976457885170      1.34399471598053     16.09993648377934
  C   -2.24992567305666      7.38176453402662     15.84914052558658
  H   -2.77614563754992      8.31402890047410     15.59733992462042
  H   -2.81133902265978      6.54511327414271     15.39777518096922
  C   2.93588158002092      7.66654841347253     13.20562011363577
  H   3.05108334202551      6.79311619260402     12.54943344550370
  H   3.77354212426555      7.63248647792340     13.91451621003198
  H   2.99520145275651      8.58606423199214     12.61190636460188
  C   0.92239809539024      2.03243533834659     17.08475675157482
