32
Coordinates from ORCA-job CELHOS_1_2_tpss_d4_lanl2dz_631gpol_Fe3.opt
  Fe  1.99997088865726      3.73941585740435     15.23314652574665
  Cl  0.50486173873043      3.19852040339623     13.63958899633634
  Cl  3.90593926329239      3.14555936411933     14.31179331219061
  N   0.70288981654301      8.53352572105512     13.83712539368493
  H   0.92195985418447      9.34212126847462     13.25335125020637
  O   2.26610988776757      5.50680263252126     14.75032867012031
  N   0.56309263942488      0.95196695626360     17.82011893411025
  H   1.14899411838578      0.12407595810376     17.77381600759618
  H   0.03972841863541      1.06749572266078     18.68296851036034
  N   0.51540603887640      4.19291690104202     16.35436078593413
  C   0.07701872502973      6.35781112780145     15.41513740837930
  N   0.16530426814166      3.18714814534758     17.23480556510377
  H   -0.81817803480520      3.12110954546939     17.49910453187399
  C   1.33300014528593      6.41785446639923     14.72569115076770
  O   -2.12031471115883      7.22268104372946     17.27317849673650
  H   -3.01786203549129      7.28198144164631     17.65864621783897
  C   -0.23800787796574      5.26604449518017     16.29724768973017
  H   -1.10736039299623      5.36639557813756     16.94926266297551
  C   1.63743445538078      7.56408782028438     13.93275023920462
  C   -0.85995081526595      7.42266815240709     15.24689136971022
  C   -0.51870862454856      8.49944430747813     14.45419384589324
  H   -1.17053629267146      9.34635039325923     14.27190712734234
  N   1.92758845892979      2.14429548296861     16.25410332476752
  H   2.57792432643676      1.36848648254023     16.12914013844347
  C   -2.24859915684813      7.38488081914454     15.85263707609164
  H   -2.77779482475239      8.31660038687769     15.60433161442217
  H   -2.81133806345711      6.54744904918948     15.40403422593438
  C   2.93541082575359      7.67856700102433     13.20320488365017
  H   3.05227181333416      6.82091757404040     12.52743646910526
  H   3.76954112645449      7.62682024354774     13.91526969115225
  H   3.00166155117933      8.61104765219154     12.63084292125897
  C   0.92874246953707      2.03625800629417     17.09368496333105
