33
Coordinates from ORCA-job CELHOS-oxo_1_4_tpss_d4_lanl2dz_631gpol_Fe3.opt
  Fe  2.25714485512014      3.88421072749682     15.50754286592112
  Cl  0.74985196288948      3.47975621440718     13.75241037208933
  Cl  3.92036966623667      3.10711649778767     14.28834155423541
  N   0.64195977232921      8.47218604978932     13.74787294952015
  H   0.82019152986293      9.24013798031395     13.09879815969883
  O   2.38111487510335      5.66604828889361     14.96737972628208
  N   0.40114822372941      0.92556410355781     17.66510921777795
  H   0.92986186591350      0.06479417545257     17.55660416032602
  H   -0.06316404529801      1.02013917094704     18.56441167629366
  O   3.22582995374256      4.20503910335515     16.82022702410227
  N   0.58944008484502      4.26599492882536     16.49721310940241
  C   0.12182120147403      6.39920780170994     15.48894601095911
  N   0.24739497809933      3.24453085061540     17.35132118704021
  H   -0.72891042093535      3.21931643266378     17.65045774384824
  C   1.37972887136531      6.47850856783185     14.81011756206274
  O   -2.11893569429806      7.21724703584326     17.28384646382473
  H   -3.01672484726847      7.27023980695426     17.66903400928281
  C   -0.16687535421457      5.32219247878467     16.40660510695750
  H   -1.06172908781597      5.41107306874406     17.02613391628797
  C   1.62146516930183      7.56010966041017     13.91005942718929
  C   -0.85970655355134      7.40477690854751     15.25295299130385
  C   -0.57027449598329      8.43647074157409     14.38008919529489
  H   -1.25750960643725      9.24054897204476     14.14404808856528
  N   1.86224491762163      2.12039592786079     16.20197277801774
  H   2.42478763026008      1.30726924916524     15.96251047914796
  C   -2.24764057476994      7.35272032403291     15.86133683473566
  H   -2.79221853917459      8.27080383968991     15.59678305078037
  H   -2.79564419314399      6.49891908693373     15.42556315674550
  C   2.90460733553895      7.66358490255494     13.15515047209010
  H   3.03228622728040      6.76783535553256     12.53167184619060
  H   3.74930357182575      7.67919674718393     13.85661501225448
  H   2.93799120643769      8.55778654898069     12.52255072479384
  C   0.88808951391355      2.04007845151469     17.05642312697725
