38
Coordinates from ORCA-job CELHOS-CH3OH_1_6_tpss_d4_lanl2dz_631gpol_Fe3.opt
  Fe  2.23186732334876      3.84314259126822     14.91956051139542
  Cl  0.59503438837474      3.70935034453430     13.28842551861104
  Cl  4.10182667861427      3.12632653758029     13.86999574055807
  N   0.38663715289431      8.48903003428195     13.55258644218872
  H   0.50504478353422      9.23180416725204     12.86219388672784
  O   2.31050252903437      5.83311464643708     14.89309733331404
  N   0.50449265571283      1.03294517417697     17.64693517255826
  H   1.00213496374252      0.15382315150623     17.54961568105796
  H   0.07923531265388      1.18873402517921     18.55650759649677
  O   3.39675569094713      4.37921982423304     16.76555597890449
  N   0.56484862175703      4.32645830754405     16.33426739566816
  C   0.01680745647265      6.45329532463573     15.37549145916596
  N   0.27812678084828      3.29993049171692     17.18179284778097
  H   -0.65462428119469      3.26773714308197     17.60018084000070
  C   1.27569985888644      6.60147077551519     14.70443265694423
  O   -2.26260930298371      7.25654136196025     17.15536336739805
  H   -3.16198502470576      7.24743587343413     17.54071078168957
  C   -0.22107839265558      5.36227457014679     16.30342544376568
  H   -1.09927087097955      5.43274151455633     16.95205569260117
  C   1.42800084671963      7.65178373870114     13.75246000459139
  C   -1.02845872852190      7.38132378440442     15.10820505704895
  C   -0.81456295219680      8.39806054862672     14.19532377410908
  H   -1.55828326872636      9.14171945106947     13.93276998915381
  N   1.82075689311798      2.09651259187081     15.95835229144173
  H   2.31358218546781      1.22152055041352     15.78344258821891
  C   -2.40612816171739      7.25578572537005     15.72738070127770
  H   -3.03335240597275      8.09411920960755     15.38951562976067
  H   -2.87462845173455      6.32121969303830     15.37198966072650
  C   2.68801415566579      7.80388133330049     12.96524491976020
  H   2.87338204510839      6.88285807596817     12.39573528461294
  H   3.54244504001226      7.93345360986078     13.64190819322636
  H   2.64080816839638      8.65481358591509     12.27561756188101
  C   0.92545486578152      2.09415709776137     16.90346082900815
  C   4.65348264002073      3.74057932888613     17.11817707183847
  H   5.39039080786766      3.85928281000854     16.31664847357602
  H   5.01938269080068      4.16149669515451     18.06216241464614
  H   4.42237978070162      2.68104813969716     17.24596721469490
  H   3.55733752490712      5.32427817130485     16.55577399359922
