40
Coordinates from ORCA-job COSBIX-OH_1_2_tpss_d4_lanl2dz_631gpol_Fe2.opt
  Cl  5.90753259816742      3.78065495131865      6.10268399702674
  Fe  3.63818441818166      3.85099449596476      6.52715083151176
  C   3.14263850665854      1.41381297193711      4.78878753122765
  H   3.08003847631033      0.85322953134817      5.71450515113800
  C   2.98654124797477      0.77438771522883      3.55237711650410
  H   2.82336480701005     -0.29959376626241      3.52365728441215
  C   3.04027654672618      1.53339974966562      2.37872036168377
  H   2.93062850994542      1.06193202215519      1.40524273010524
  C   3.21741727459957      2.91496218292767      2.48393610935034
  H   3.23891119259573      3.55144294181860      1.60262650901519
  C   3.35827107898098      3.48739519961639      3.75541584415581
  C   3.47578876350141      4.90941601250899      3.98449355997065
  H   3.50700434050409      5.62201181997624      3.16048638023084
  C   3.65264081442329      6.53771263495056      5.79452056495822
  C   3.58389483959795      7.74807351291754      5.08973270508066
  H   3.42260802668024      7.75468790777419      4.01456633640289
  C   3.71930418124348      8.94875720136108      5.78911570963244
  H   3.66722609739895      9.89194582223862      5.25055021129666
  N   3.35369623344745      2.73228676154338      4.90380387602787
  N   3.54188696223646      5.25529350897801      5.23728727539145
  C   4.22536314647236      1.41816996686672      8.21900773909100
  H   4.13777560582782      0.85324679682867      7.29883441304636
  C   4.55028318591965      0.78490038459693      9.42343167507054
  H   4.68849181330164     -0.29276724060994      9.43871268529258
  C   4.69477197210081      1.55353534922695     10.58475286732053
  H   4.94393836788065      1.08562672043599     11.53394432339362
  C   4.53463667620012      2.93740068466266     10.49595718933612
  H   4.66878238354502      3.57997480589580     11.36283719372041
  C   4.21541084313147      3.50725063621780      9.25455843513649
  C   4.12716189429508      4.92903194018451      9.01781615245888
  H   4.28592958981885      5.65687069663094      9.81279024518076
  C   3.85046550014661      6.53975285367774      7.20199555078580
  C   3.99010861133079      7.75167394418136      7.89424205665317
  H   4.14956895442895      7.76268609966689      8.96972247617090
  C   3.92255765161576      8.95067577031775      7.18243859065789
  H   4.02754843547132      9.89505375930592      7.71104106433530
  N   4.03208073261530      2.74376688346894      8.12356974917871
  N   3.90690116698907      5.25574442067641      7.77269686846101
  O   1.85788716396781      3.81695156557594      6.76205860106221
  H   1.64094138875682      3.93974078422464      7.71286203852499
