44
Coordinates from ORCA-job COSBIX-CH3OH_1_5_tpss_d4_lanl2dz_631gpol_Fe2.opt
  Cl  6.19417484773216      2.81752429741525      5.87312020726638
  Fe  4.07025881753296      3.49444727039635      6.42435047552649
  C   3.24811909305531      1.33507360028448      4.16514709116279
  H   3.25443873601997      0.62737493580085      4.99134699405872
  C   3.12640456472988      0.89825644218967      2.83911577358882
  H   3.01602083734908     -0.16147134444203      2.62493343392552
  C   3.17520047826616      1.84744069260205      1.81139689342768
  H   3.10042098309950      1.54189953988457      0.77032080286868
  C   3.33111115411447      3.19621941006678      2.14313695504327
  H   3.38072333961251      3.96268559345675      1.37257111652839
  C   3.43138651095387      3.55734985351787      3.49658758764084
  C   3.59682473207302      4.93983914968937      3.91974777570541
  H   3.67800819493128      5.71624230103345      3.15472024240710
  C   3.81329423788475      6.45683023374001      5.76947736534935
  C   3.68522555182299      7.67367562665694      5.07639194583346
  H   3.46162738696151      7.68054721219640      4.01212801548229
  C   3.83199866405724      8.88188824835668      5.75887613861876
  H   3.73353439414947      9.82030767069920      5.21787374409830
  N   3.39357160173728      2.62670573887804      4.49657453692968
  N   3.67297272962497      5.18091396011053      5.20110508178169
  C   4.45691144770491      1.33452951950268      8.72436294912350
  H   4.35352486899393      0.64107983200762      7.89280378394500
  C   4.76166682739681      0.88165350855372     10.01655770786805
  H   4.88179056524640     -0.18244782928941     10.20251146236933
  C   4.91372457958076      1.82056322059459     11.04143723156871
  H   5.15272106031936      1.50426806759674     12.05412358091942
  C   4.76873198345136      3.17939436170172     10.73918519920339
  H   4.89974770153566      3.94251881653713     11.50348762523731
  C   4.46545018896030      3.55209874832490      9.42186469305739
  C   4.36476635519425      4.95132218872017      9.01549889293404
  H   4.48411149679137      5.72578351241099      9.77925367717668
  C   4.07367477525526      6.46962826277634      7.17217659079808
  C   4.22246949423156      7.69620584697298      7.84424800751579
  H   4.43628743217853      7.71700458380344      8.91043784427515
  C   4.10441453385499      8.89387416637406      7.13934482536754
  H   4.22194019880465      9.84084621967190      7.66106282233729
  N   4.29618624923652      2.63277700604152      8.42976772474371
  N   4.16959922176965      5.20258077581944      7.75917115080940
  O   1.89445741687484      3.51016159213621      6.97712788738854
  C   1.06969177165651      2.32482169985115      7.08726038384785
  H   0.96142634636424      1.82485759820597      6.11584402901489
  H   0.08434088720611      2.58788840809154      7.48962370327734
  H   1.58675404098560      1.66726705687844      7.78966655943128
  H   1.46491370069768      4.13126240418263      6.35549949054615
