51
Coordinates from ORCA-job BANQOZ_0_5_tpss_d4_lanl2dz_631gpol_Fe2.opt
  Fe  7.30661360175614      3.55666933291567      5.38893223480630
  S   9.77434589769694      6.49975924377607      7.65832281943206
  S   4.82860821672526     -0.24011272927930      6.66740189746358
  N   7.57649431329662      4.95254029739078      6.77396878021240
  N   6.01897262724954      2.24900693248656      6.05508477920471
  N   8.32780800086084      4.97050451194944      3.99423803403554
  N   9.32731382415203      4.47929401494359      3.19663221249547
  N   7.24598136603162      2.47863841679559      3.37695083366279
  N   8.45693823019127      2.30226931455949      2.75689866136732
  N   9.20253113921887      2.63811592411435      5.56237240951911
  N   10.07131359926209      2.60780554531561      4.50661043601442
  C   8.50846463239493      5.60740440465564      7.16068502019677
  C   5.52219675100150      1.19072030050867      6.32717240598516
  C   9.61004156525231      3.05696123017930      3.20483343667436
  H   10.41960347312015      2.87953671425427      2.49666020204693
  C   7.33135202575917      7.19016919900852      4.47003253348718
  H   6.52191974033942      6.60839605422875      4.92090599887279
  H   6.90932815966904      7.92239637444851      3.76954438404479
  H   7.83907416949146      7.73698221788790      5.27619490002691
  C   8.29929271796237      6.29230522283308      3.76224391062331
  C   9.28459294563517      6.63931764037364      2.80201103940093
  H   9.49768096484650      7.62851605157732      2.41644458388765
  C   9.93083631956027      5.46667483168899      2.45146161140129
  C   11.04327823283917      5.20114503121728      1.48345788587410
  H   11.94060673187976      4.80423714886475      1.98031155942577
  H   11.32606544168693      6.13818574775899      0.99323815159957
  H   10.74611051504752      4.49145714891072      0.69673870441112
  C   4.94290794417598      1.59589495988173      3.09725492401864
  H   4.75262368553632      0.70416368117721      3.70978803784471
  H   4.32061434829823      1.53130603562294      2.19553847960946
  H   4.64336553018686      2.46991874706729      3.68322890695399
  C   6.38963620019414      1.68139334980300      2.71760200016077
  C   7.06437387066113      0.99483170785383      1.67422410286814
  H   6.63372849502562      0.28785181560827      0.97604329647128
  C   8.38573015884860      1.40515838837997      1.71639509002756
  C   9.56880812759629      1.03426535307618      0.87499322224523
  H   9.98152782775050      1.89935476206594      0.33357838470554
  H   9.26442108570259      0.29337973702154      0.12884060366769
  H   10.37676534999194      0.58984145520342      1.47478456575904
  C   9.26602204331016      2.19707593090941      7.98790552816323
  H   9.47474005807057      3.12117812524839      8.54395766778436
  H   9.65726592303212      1.35021294933559      8.56460959378735
  H   8.17990343297437      2.09709141559218      7.88732508499003
  C   9.90951059365299      2.25358657093080      6.63723710084648
  C   11.24529230662294      1.97340981249298      6.25437592768953
  H   12.05022261338906      1.63629000203272      6.89526826290562
  C   11.33085298839998      2.21347537098245      4.89152159420632
  C   12.48304532121290      2.10275201355016      3.94033267728614
  H   12.26148107583050      1.43559352112445      3.09392889618231
  H   13.34926647949102      1.69034711024405      4.46744710179700
  H   12.77692933711691      3.08233106143074      3.53556952385658
