52
Coordinates from ORCA-job BANQOZ-oxo_0_1_tpss_d4_lanl2dz_631gpol_Fe2.opt
  Fe  7.21344414028689      3.71071820735398      4.99075534873094
  S   9.47366598623821      6.42257299742052      7.69570247481091
  S   6.74281891729231     -0.48751347473167      6.33014826436878
  N   7.44729363137426      4.83966985254939      6.52197001479292
  N   6.42429676924510      2.30442131775380      6.03003823344967
  N   8.30708313513205      4.98189851251719      3.92245893699112
  N   9.33886876320958      4.50181047845038      3.16094944068065
  N   7.28041571099194      2.47225471764915      3.43768596415007
  N   8.44545460527527      2.34119866671561      2.73176592840814
  N   9.10401024875332      2.85214672382700      5.51411479097810
  N   10.00177430398318      2.65428372721762      4.50133271989806
  O   5.80585338981296      4.38073075922285      4.46003752882996
  C   8.32312391334449      5.50394096067415      7.00105005769187
  C   6.57703924470211      1.11916921447351      6.13996450277565
  C   9.61196901374011      3.07728460496234      3.17835675884072
  H   10.43147051439871      2.87541840628877      2.48889316447938
  C   7.27955779484886      7.19023172857256      4.41826413009026
  H   6.39785280694408      6.60298445793452      4.69271160352124
  H   6.99012450629525      8.00567080482203      3.74345447550779
  H   7.70775140116175      7.63068602280977      5.32920134470412
  C   8.28816654092029      6.31329724337879      3.74690053221014
  C   9.33656312858118      6.67733443866067      2.86325900428990
  H   9.57835245959703      7.67895505650220      2.53136625924544
  C   9.99683194310902      5.51427133976322      2.50563521304583
  C   11.17822948001766      5.27138021232063      1.61788939112525
  H   12.02472970543565      4.83673265791354      2.16998366489059
  H   11.51390244058544      6.22387968837989      1.19582893497145
  H   10.93677122843280      4.60275132250545      0.77799295639966
  C   4.97343426641636      1.54931005591596      3.33730688744213
  H   4.87686416123643      0.67928222644764      4.00121148462681
  H   4.29565905684110      1.41151088221475      2.48552546795719
  H   4.69466121506148      2.44908140070147      3.89445924042231
  C   6.38154134626215      1.66756064339486      2.84703611320061
  C   6.99980260170197      1.01079359263689      1.75217786936211
  H   6.53300539508759      0.29891159125833      1.08348266270200
  C   8.31265210627260      1.44679553909953      1.69752379708455
  C   9.43996606111722      1.10600638161040      0.77249431465247
  H   9.80359184728953      1.98634152549458      0.22151808604463
  H   9.09386630054997      0.37408476604890      0.03594290012484
  H   10.29139251094487      0.66095701474200      1.30828476345331
  C   9.05387614970608      2.46457928763307      7.97774287577845
  H   9.53515414043315      3.24371636314041      8.58477850582459
  H   9.17035849481915      1.50094775868899      8.48887758985099
  H   7.99203717701457      2.70037575531699      7.88708430796662
  C   9.70196414977513      2.40491591686835      6.63021883465913
  C   10.99690679451076      1.91689426189781      6.30763151871096
  H   11.71337431924580      1.49036523900618      6.99810857059278
  C   11.17187611990243      2.08566771950775      4.94609194546122
  C   12.31494502501855      1.76081349453101      4.03427881635873
  H   12.03437470976426      1.02261433185792      3.26812708545188
  H   13.13482556892718      1.33341199299160      4.62002031871563
  H   12.70355475839050      2.65428161308618      3.52276440367677
