51
Coordinates from ORCA-job CAJVIV-oxo_1_6_tpss_d4_lanl2dz_631gpol_Co2.opt
  Co  15.04098498567276      3.35971563881618      7.60445120992311
  N   15.92553916873469      3.13945718580156      9.48959720481695
  Cl  16.75731071216868      4.71076522257324      6.85316636897892
  N   13.92164006529158      1.72373890016961      8.55838968318431
  O   13.80846750035324      4.52358974458528      7.98077259924120
  N   16.30359212499723      1.59281789004377      6.83433051163244
  N   14.52748691900798      2.14007951986955      3.66665178012202
  N   14.27103296497635      2.89871626301311      5.73558452140300
  N   15.91893616415087      2.38703510519034     11.58171209186110
  C   15.98600346137261      1.18720403225330      5.57182141832546
  C   17.26119745828674      0.94239335970795      7.50810803035966
  H   17.48285307204941      1.33269588964199      8.49860956400092
  C   12.93866114122551      1.04456669910503      7.94990909807249
  H   12.70103503530243      1.37014333778258      6.94083061985699
  C   14.28149236816892      1.40378768463947      9.83670393516743
  C   16.88364497547360      3.82545233090648     10.14887134481254
  H   17.47872067146874      4.58382933205949      9.65799818586487
  C   13.38404691347671      3.57154290281069      4.96403191980312
  H   12.73836267026791      4.33536355822403      5.37501266119395
  C   17.69155030784279      3.72004727390283     12.61556777115598
  H   18.46031109691527      4.48157684785877     12.51537268269962
  C   17.94937876923526     -0.15708364200195      6.98315216385345
  H   18.72897764400445     -0.64483088741045      7.56238461881053
  C   16.92329518689149      3.38535798769291     11.47698044742477
  C   17.44332042721927      3.08742206457669     13.81463715089532
  H   18.02300967152034      3.33373019372356     14.70003188243441
  C   13.28855077851414      2.82717936290131      1.26055094551540
  H   12.82187531463678      3.06695420515031      0.30904948890995
  C   13.50400022353858      3.12633111029742      3.64569734911314
  C   17.59498345470364     -0.60884425199739      5.70786932099849
  H   18.08217646146890     -1.47836919098426      5.27173788482109
  C   15.33894490657612      2.26156600759256     10.33319726289633
  C   14.35395138049370      1.87754995191159      1.30655719660711
  H   14.71205308130675      1.40898343549285      0.39412964109220
  C   15.65507831580604      1.77818465598976     12.80061532388401
  H   14.83556503713102      1.07466179991886     12.83269947773750
  C   12.87891764695969      3.45070153035328      2.41816291397676
  H   12.09236208114351      4.20057360353309      2.42004791971860
  C   12.25877986426293     -0.00987095118798      8.56560994601310
  H   11.46137461184387     -0.52818201206656      8.04005796025247
  C   14.95889285477556      2.02182957139736      4.97198511336790
  C   14.96152559306136      1.54743786325271      2.48824475140726
  H   15.80104648116922      0.87070599630604      2.56094469766558
  C   16.40280492796894      2.11523913200996     13.89803809030291
  H   16.17709270958508      1.63026691198091     14.84368252038665
  C   12.64103641316039     -0.37323893727447      9.86136666495857
  H   12.15277017938151     -1.20073541460619     10.37162836727664
  C   16.60140775348079      0.06344022283329      4.99112616736994
  H   16.29533533354877     -0.31050696256570      4.01943611755268
  C   13.66010748676509      0.33210899862860     10.50478686450038
  H   13.97271563264170      0.02991892559652     11.49799854778024
