50
Coordinates from ORCA-job CAJVIV_1_2_tpss_d4_lanl2dz_631gpol_Co2.opt
  Co  15.19773785984593      2.89598682254208      7.63857947380277
  N   15.86896560782117      3.00788124176507      9.40493397130486
  Cl  16.38421867734674      4.68052228428575      6.97644575892279
  N   13.93851442135121      1.65221157621317      8.46550639182928
  N   16.43052549098436      1.40322492672696      6.86441513820854
  N   14.56515306785643      2.10241063425617      3.77036222363087
  N   14.47633053762769      2.79538876942539      5.87909876309595
  N   15.81485535602597      2.38629174815816     11.54191969803387
  C   16.22535258608251      1.16850854350272      5.53141011664919
  C   17.43295405151025      0.77852070727734      7.50026504747973
  H   17.54673795842736      1.02658434338940      8.55317960970633
  C   12.95172203715838      0.98573959254198      7.82965561053673
  H   12.83654960324028      1.21709957477063      6.77531899277736
  C   14.14241262245939      1.41289462950225      9.81099461753853
  C   16.85979647692244      3.68882456700383     10.02639215167602
  H   17.47924182756839      4.39548654007759      9.49117236098508
  C   13.52475416315190      3.48259751832032      5.20581254266777
  H   12.91686673101423      4.24026936140900      5.67931726267041
  C   17.63752294680384      3.70124114333964     12.50327200883802
  H   18.43533976162357      4.42586878532896     12.36572443171335
  C   18.28975158481861     -0.12132940733308      6.86085738850798
  H   19.09219757280165     -0.60203876233002      7.41406233800554
  C   16.86505013362905      3.33025841089248     11.37919775965422
  C   17.36161514378809      3.14555888868905     13.73475663112484
  H   17.94596058952826      3.42227309462096     14.60793301902176
  C   13.09459738393369      2.82908061523743      1.50924087818100
  H   12.54420276453957      3.09493119673348      0.61098586497335
  C   13.54039554160212      3.08033601806751      3.86745889969623
  C   18.08648246612126     -0.37248928547256      5.49940896179733
  H   18.73319843281010     -1.06152079271379      4.96078510368593
  C   15.23176387467678      2.21361945438216     10.30468970117832
  C   14.12473450799991      1.84507768454445      1.44320698701185
  H   14.36085025199177      1.35668628692380      0.50208116065041
  C   15.54004818355391      1.83683701201276     12.78425680635290
  H   14.71950074500182      1.13574315152415     12.84136959185404
  C   12.80680948188080      3.43578476525223      2.71266278943275
  H   12.03100305364317      4.19108010355392      2.80410737365258
  C   12.12321244462744      0.06619640589717      8.47179101472195
  H   11.33862576354739     -0.43603267061165      7.91262762219642
  C   15.11859360970828      1.95827756384367      5.02734968182030
  C   14.84146966983091      1.49171413241007      2.55604673483637
  H   15.62540067717895      0.74889940475327      2.54508996787556
  C   16.29784893493850      2.20504370475364     13.86546968370466
  H   16.06684913038452      1.76512623820767     14.83139380755940
  C   12.32719796661628     -0.18565084229095      9.83436052914445
  H   11.70260344669558     -0.89846364981474     10.36779483782736
  C   17.04777532583502      0.27396719941548      4.82473750025373
  H   16.90298155106988      0.08333142989299      3.76765650267090
  C   13.34545957141917      0.48998706195197     10.50824903819307
  H   13.51416841100468      0.29316227717004     11.56119565234700
