52
Coordinates from ORCA-job CAJVIV-OH_1_5_tpss_d4_lanl2dz_631gpol_Co2.opt
  Co  15.00669144730274      3.16543191357308      7.60973710956914
  N   15.99183497023882      3.01977382602044      9.44960849847092
  Cl  16.73218911991992      4.44166136854921      6.70931212384370
  N   13.95648084838872      1.50886669295960      8.64771991209919
  O   13.68110455307446      4.29983641349088      8.13342235659935
  N   16.10134722923749      1.41557523833663      6.79324405167075
  N   14.55921176632979      2.26422546004191      3.56973482081106
  N   14.21858414489420      2.89662849950328      5.67548632353794
  N   15.91895984228254      2.48849656137688     11.60902485952627
  C   15.83408609568452      1.10775487878057      5.48958698840384
  C   16.97784047453328      0.67169871552844      7.48339786749622
  H   17.15621952863106      0.98913372823295      8.50711383620149
  C   13.04808727696448      0.69704608429853      8.08544193644056
  H   12.78136280346593      0.93959647877454      7.05831219667032
  C   14.37217590451766      1.27995975166084      9.93059498074678
  C   16.91409798572388      3.78666827901941     10.06584735673987
  H   17.51297139530990      4.49892587340399      9.51318863423350
  C   13.44227854382687      3.68474941383850      4.90081159650737
  H   12.83358264566229      4.47436607445373      5.31914768244302
  C   17.62769329191212      3.95568779395506     12.56095100724346
  H   18.39091473755930      4.71443265148927     12.41056017188358
  C   17.63562035096268     -0.42995220325771      6.93056082099293
  H   18.35110817002293     -0.99388252930469      7.52274584535765
  C   16.91229402222964      3.48890238690705     11.43465902306198
  C   17.33547100888651      3.45312324258128     13.81106235240448
  H   17.87481513030530      3.80308267693729     14.68692356568855
  C   13.53260041383254      3.20117283810356      1.15082958856680
  H   13.14611119100315      3.53955729327740      0.19337047983012
  C   13.61503572538306      3.32384182660037      3.55995593267084
  C   17.33800818821522     -0.78186435648977      5.60902613542229
  H   17.80552877081707     -1.64885424378348      5.14730603218213
  C   15.38836208452715      2.22250164860297     10.36056054054528
  C   14.51986582708671      2.17188237666045      1.19129520863004
  H   14.90048151419416      1.73760215576141      0.27113586321453
  C   15.60397593389993      2.01639242562768     12.87496934009351
  H   14.78376511752270      1.31545139790457     12.94705590392237
  C   13.09529897118916      3.77541570047005      2.32500211036743
  H   12.36630788972001      4.58125531787374      2.33278653351536
  C   12.47951894361238     -0.38552112468412      8.76216373815472
  H   11.73587531847859     -1.01048420691575      8.27526219691705
  C   14.89107460546234      2.02926015724613      4.88978558279786
  C   15.02379526216935      1.71908194791066      2.38184852729658
  H   15.80409922114413      0.97479989472411      2.45568683715948
  C   16.29995096507016      2.48315302512552     13.95915719021959
  H   16.03619418416430      2.10564821107890     14.94313966914128
  C   12.90881490189066     -0.64106920695180     10.07085096225861
  H   12.51204026578957     -1.48784504186118     10.62680402651832
  C   16.42715784807106     -0.01422346969380      4.88102282320977
  H   16.16085616679867     -0.30965953422675      3.87163073774548
  C   13.86645778980479      0.18691874210182     10.66075619669518
  H   14.23854668861633     -0.04405774468834     11.65340114748931
  H   12.83123292366896      3.87215469907458      8.37293077679177
