56
Coordinates from ORCA-job CAJVIV-CH3OH_1_4_tpss_d4_lanl2dz_631gpol_Co2.opt
  Co  15.26427029246613      2.82574311247079      7.48030661648637
  N   15.99887803118636      2.95269775097760      9.43764755320260
  Cl  16.91878644286945      4.26535080332914      6.62887191128195
  N   14.05482650609926      1.40169817805614      8.62230138112292
  O   13.80227361139965      4.38089305712877      7.98979310823187
  N   16.27987799059558      1.13557945576830      6.67879490496462
  N   14.73383688263346      2.06022024117208      3.47611417574978
  N   14.33626760305668      2.58437610960741      5.60647009425906
  N   16.00917934649858      2.38437635342108     11.59309533400053
  C   16.06149997104973      0.89776630648962      5.35209837740099
  C   17.15824109853783      0.37748076633456      7.35194124914044
  H   17.28914709996972      0.63528440136146      8.40076456393031
  C   13.11965824372110      0.61963267180155      8.06103167716075
  H   12.91763519677553      0.82443152299685      7.01162990479501
  C   14.38807455244633      1.21997248370554      9.93736315798805
  C   16.95705017549607      3.69634857221194     10.03144665856329
  H   17.55609074820029      4.39312206702406      9.45860450740633
  C   13.48993574631718      3.32056902710140      4.84916676003570
  H   12.78611572388592      4.01392052118943      5.28869467723905
  C   17.78173924667863      3.80932737530179     12.49503322962826
  H   18.54734057792594      4.56140420131671     12.32395895000560
  C   17.87100808957303     -0.66583571757168      6.75638071376823
  H   18.58361139999612     -1.24620556388049      7.33616308448220
  C   17.00810399007586      3.37610336898346     11.39378098950953
  C   17.54827888862066      3.27864756364545     13.74576730069680
  H   18.13521976129451      3.60108908716037     14.60140642046169
  C   13.62945722400322      2.98087413713589      1.08505852972588
  H   13.21359874462461      3.31320828824711      0.13777283047574
  C   13.69510103216728      3.02671080798686      3.49795151808701
  C   17.63038400491489     -0.94000960797815      5.40482801725323
  H   18.14422222166248     -1.75894721230542      4.90599440380416
  C   15.42313644537116      2.14829243069151     10.36115624340028
  C   14.71401564381029      2.05307823359192      1.09523025187942
  H   15.14037717556842      1.69402013009898      0.16280699863005
  C   15.76307994168286      1.87615512985339     12.86053989799584
  H   14.95467231071254      1.16566112847293     12.95779931277632
  C   13.13683250866060      3.46893361818109      2.27583768627747
  H   12.33247966520253      4.19912091543339      2.30686392813321
  C   12.45150882565476     -0.38739102291930      8.76298107980561
  H   11.69428676729477     -0.99238161777290      8.27167147546922
  C   15.07956280957356      1.80583169544283      4.78890960565462
  C   15.25551000141585      1.60936862618620      2.27233455024424
  H   16.10917226156197      0.94858610885331      2.32556276930727
  C   16.51730545516248      2.30831719445640     13.91981633974439
  H   16.30671880553011      1.89886156221239     14.90384344053343
  C   12.79846702653279     -0.59480149166171     10.10343578523740
  H   12.31908867272253     -1.38008336527579     10.68409168521672
  C   16.71501048354415     -0.16053041527464      4.69432773119168
  H   16.49330723087575     -0.40335742916347      3.66051037411559
  C   13.77467753060152      0.20754425967169     10.69924971354662
  H   14.06196155535701      0.02007959134561     11.72792222599486
  C   14.12038478547461      5.76261474532711      7.64633585014307
  H   14.34411372796195      5.75859302914614      6.57901191286907
  H   13.25118194768757      6.39615216854997      7.86235741442866
  H   15.00818567632456      6.10344508199768      8.18916417629226
  H   13.66419230097250      4.33442956236549      8.95653695025420
