51
Coordinates from ORCA-job CAJVIV-oxo_1_2_tpss_d4_lanl2dz_631gpol_Co2.opt
  Co  15.19251274569555      2.84440564073040      7.62757130719891
  N   15.96021496290290      2.90931725270620      9.36500838054644
  Cl  16.67154184605360      4.36289463491013      6.83189383447103
  N   14.03455823061278      1.50509620529779      8.45052058555920
  O   14.03757685886228      4.07815528170897      8.09855010148830
  N   16.38692668952546      1.38903274626117      6.85384343247197
  N   14.54468016384931      2.15399866770674      3.76427146508079
  N   14.45782444861860      2.76641957396979      5.88827755379813
  N   15.82435866591275      2.42533441389946     11.52664236805751
  C   16.15499304635608      1.12177560443003      5.52744433942384
  C   17.37095192143562      0.74442392698693      7.49913706578465
  H   17.51107927957255      1.02370437911819      8.53966624636278
  C   13.07239699839973      0.81773397073210      7.81250706857705
  H   12.97030740726140      1.02587318647547      6.75250992078916
  C   14.22625416449496      1.33065598977232      9.80056672405567
  C   16.90683440052073      3.65117893346453      9.97261877185217
  H   17.52983850705369      4.33915243788288      9.41769883200567
  C   13.53527803549500      3.51508342317105      5.25501290110855
  H   12.96636837268083      4.26465307620035      5.78707840997665
  C   17.58275112872380      3.83371530389287     12.47313181573852
  H   18.37388515492174      4.56269911727563     12.32066749030866
  C   18.17887189336243     -0.20952940507740      6.87673079283581
  H   18.96952693041523     -0.70194198436657      7.43578358380433
  C   16.86300421549522      3.37728335142830     11.34669815295536
  C   17.26119164665505      3.35673063821280     13.72670558718886
  H   17.80278255551825      3.70138517509422     14.60323294150520
  C   13.11837239786691      3.01616241784407      1.52889827301434
  H   12.58069579606102      3.33202031442573      0.63925031292923
  C   13.54768547979782      3.15929742747607      3.90002760253655
  C   17.94174071414035     -0.50330481637027      5.52888383625914
  H   18.54603714740596     -1.24338037609628      5.00922350704846
  C   15.29766024162872      2.16329444309375     10.28020454347489
  C   14.13334892190130      2.02007327925886      1.42442177969572
  H   14.37543691929795      1.57878989995882      0.46179828614143
  C   15.50074584397143      1.95730749202492     12.79018864046552
  H   14.68231333210375      1.25462265141752     12.85990247143222
  C   12.83292403145336      3.57802631769358      2.75546917116928
  H   12.07421619163023      4.34708743558579      2.87257242847742
  C   12.24721908044876     -0.09392316672159      8.47203318631337
  H   11.47788123793030     -0.62562346721582      7.91951157725307
  C   15.08067807144480      1.94069768409679      5.01645790094976
  C   14.83137298772620      1.60035849811654      2.52652078848645
  H   15.61746186657296      0.85931492474383      2.48999180330485
  C   16.20435046009143      2.41139606269346     13.87527706760600
  H   15.93348322526496      2.03770180832205     14.85862916341294
  C   12.43632315798375     -0.29441639437450      9.84470505596105
  H   11.81406668126125     -0.99860343201703     10.39217836692152
  C   16.92244143556669      0.16253640390367      4.84559329188567
  H   16.73311207128090     -0.06993123696210      3.80328345172351
  C   13.43174215797009      0.41749266612821     10.51502247131893
  H   13.58638027880265      0.25677162108944     11.57608534927302
