50
Coordinates from ORCA-job CAJVIV_1_4_tpss_d4_lanl2dz_631gpol_Co2.opt
  Co  15.37728903234357      2.80276359778395      7.58298201106456
  N   16.04202511018108      2.94672379277317      9.52556977396025
  Cl  16.47842335979036      4.66675209459815      6.82885004335089
  N   14.07375524467543      1.44376245051660      8.64712908242410
  N   16.36631254185688      1.22714796245826      6.64643811212693
  N   14.56427803159136      2.21929798750250      3.60678981112512
  N   14.31479002264889      2.67243097474082      5.77704908612661
  N   15.82325134644872      2.53398274784945     11.70230919610005
  C   16.01196604169885      0.99309931015482      5.34555670365908
  C   17.30093141315321      0.45843941905054      7.23080797832935
  H   17.53464127098974      0.70974860684579      8.26323214824552
  C   13.14771150839644      0.66325564745050      8.06546760885344
  H   12.98992873773185      0.84608478901093      7.00494109146292
  C   14.34430477484293      1.28830313819087      9.98197009157608
  C   16.93186270505953      3.73980365126279     10.16150298421747
  H   17.56506147469706      4.42670238723585      9.61524670339649
  C   13.44552456755532      3.45911656582806      5.10273057936241
  H   12.80822518512705      4.17538293920051      5.60308337699691
  C   17.49299381487525      4.02921007745317     12.68279030789058
  H   18.27415846961935      4.77125734338052     12.54114084680581
  C   17.94190361809237     -0.58739408516999      6.56380012891519
  H   18.70171088222668     -1.17689183853824      7.06945855310428
  C   16.83945739664268      3.51384804755522     11.53992458265446
  C   17.12252772633173      3.59085167082188     13.93612276444924
  H   17.61495934277067      3.97687104386519     14.82444812638598
  C   13.34729913600868      3.26954785986574      1.32774687033724
  H   12.88800532859177      3.65527223573181      0.42165598701559
  C   13.55844651516898      3.21089038048678      3.73095175125683
  C   17.56720890060781     -0.85502633079423      5.24072709345605
  H   18.02248559507360     -1.67731903215658      4.69296130788910
  C   15.36935844652577      2.20823787045733     10.43814514312175
  C   14.39682343176273      2.30726166146327      1.23408140498685
  H   14.75041623552857      1.97147952063560      0.26328997192859
  C   15.43301184009751      2.12458648693259     12.96916555196134
  H   14.60859660799120      1.42803686842118     13.02917234577140
  C   12.94230197464460      3.72161184432463      2.56509624258921
  H   12.16733848731562      4.47541724208503      2.67498110982232
  C   12.42938416528086     -0.31090765730306      8.76265485796088
  H   11.67891965321405     -0.90991949350434      8.25406256471351
  C   14.98738561907499      1.90811836427752      4.88468775304202
  C   14.99429647866675      1.79875145221191      2.35692114541774
  H   15.82235117263074      1.10407282825970      2.33162068843315
  C   16.07057704553248      2.63649147033308     14.06866677090676
  H   15.74894334250099      2.30504715855759     15.05207829064129
  C   12.71716889600969     -0.49534059239994     10.12050210701009
  H   12.20012930064093     -1.25935818663185     10.69716745493670
  C   16.59203711373162     -0.06780932512996      4.62536503281170
  H   16.26420965108536     -0.30474798900000      3.61856980795441
  C   13.68451406451921      0.30118348502155     10.73732545697359
  H   13.93669737844743      0.12687155603321     11.77766159647766
