150
QM: 39 at, MM: 111 at, Links: 6
C     4.166200    0.880400    0.677500
H     3.691500    0.201900    0.134900
H     3.510600    1.565600    0.962700
C     4.784300    0.234200    1.875300
C     4.274500   -0.307900    3.028100
H     3.367100   -0.323600    3.309900
C     5.717900    2.758000    0.545200
H     5.196300    3.531900    0.215500
H     5.568600    2.681300    1.520900
C     7.161100    2.985000    0.282500
C     7.920400    4.117500    0.134700
H     7.622100    5.019000    0.108500
N     5.245300    1.515100   -0.130800
N     6.125500    0.025100    1.900100
N     6.475500   -0.616900    2.999600
N     5.344200   -0.813900    3.671600
N     8.006900    1.917400    0.255300
N     9.249600    2.327300    0.098100
N     9.189600    3.663800    0.034100
Fe    7.037700    0.000000    0.000000
C     9.909300   -0.880400   -0.677500
H    10.384000   -0.201900   -0.134900
H    10.564900   -1.565600   -0.962700
C     9.291200   -0.234200   -1.875300
C     9.801000    0.307900   -3.028100
H    10.708400    0.323600   -3.309900
C     8.357600   -2.758000   -0.545200
H     8.879200   -3.531900   -0.215500
H     8.506900   -2.681300   -1.520900
C     6.914400   -2.985000   -0.282500
C     6.155100   -4.117500   -0.134700
H     6.453400   -5.019000   -0.108500
N     8.830200   -1.515100    0.130800
N     7.950000   -0.025100   -1.900100
N     7.600000    0.616900   -2.999600
N     8.731300    0.813900   -3.671600
N     6.068600   -1.917400   -0.255300
N     4.825900   -2.327300   -0.098100
N     4.885900   -3.663800   -0.034100
C     5.403700   -1.625300    4.908800
H     4.506600   -1.986300    5.120700
H     5.699900   -1.063300    5.668000
C     6.374800   -2.752300    4.694700
C     7.596600   -2.765900    5.342100
H     7.806700   -2.091100    5.976500
C     8.514200   -3.766200    5.063300
H     9.352100   -3.780000    5.511400
C     8.211500   -4.744700    4.128500
H     8.848600   -5.421200    3.931600
C     6.983300   -4.746500    3.479400
H     6.772700   -5.422700    2.846400
C     6.067500   -3.748400    3.769100
H     5.224000   -3.743000    3.333200
C    10.438700    4.432500   -0.098100
H    11.132100    4.028100    0.482100
H    10.284300    5.359500    0.212400
C    10.941600    4.464100   -1.526300
C    11.613100    3.363500   -2.054200
H    11.758200    2.593500   -1.516200
C    12.069200    3.388600   -3.365600
H    12.526000    2.636600   -3.723900
C    11.861400    4.510400   -4.152200
H    12.173400    4.525900   -5.049400
C    11.197000    5.609200   -3.630200
H    11.053200    6.375000   -4.171900
C    10.740900    5.593800   -2.318700
H    10.293400    6.351900   -1.962700
C     4.754400    1.840400   -1.511900
H     4.600600    0.993900   -2.001500
H     5.462500    2.339200   -1.990600
C     3.487000    2.653000   -1.541000
C     3.265500    4.010200   -1.477100
H     3.914200    4.701500   -1.420100
C     1.105500    5.359800   -1.402000
H     0.297500    5.257800   -1.964300
H     1.621600    6.131600   -1.748800
C     0.682400    5.647200    0.029100
C     1.160300    6.764700    0.706900
H     1.769900    7.352000    0.277500
C     0.748000    7.028400    2.013900
H     1.081200    7.794300    2.468100
C    -0.133600    6.188600    2.646400
H    -0.407900    6.370400    3.536300
C    -0.623800    5.071400    1.979800
H    -1.235000    4.485800    2.413800
C    -0.213400    4.814500    0.670400
H    -0.554400    4.054300    0.213900
N     2.277100    2.039200   -1.617900
N     1.330900    2.945100   -1.607400
N     1.928200    4.141700   -1.512500
C     8.671800    1.625300   -4.908800
H     9.568900    1.986300   -5.120700
H     8.375600    1.063300   -5.668000
C     7.700700    2.752300   -4.694700
C     6.478900    2.765900   -5.342100
H     6.268800    2.091100   -5.976500
C     5.561300    3.766200   -5.063300
H     4.723400    3.780000   -5.511400
C     5.864000    4.744700   -4.128500
H     5.226900    5.421200   -3.931600
C     7.092200    4.746500   -3.479400
H     7.302800    5.422700   -2.846400
C     8.008000    3.748400   -3.769100
H     8.851500    3.743000   -3.333200
C     3.636800   -4.432500    0.098100
H     2.943400   -4.028100   -0.482100
H     3.791200   -5.359500   -0.212400
C     3.133900   -4.464100    1.526300
C     2.462400   -3.363500    2.054200
H     2.317300   -2.593500    1.516200
C     2.006300   -3.388600    3.365600
H     1.549500   -2.636600    3.723900
C     2.214100   -4.510400    4.152200
H     1.902100   -4.525900    5.049400
C     2.878500   -5.609200    3.630200
H     3.022300   -6.375000    4.171900
C     3.334600   -5.593800    2.318700
H     3.782100   -6.351900    1.962700
C     9.321100   -1.840400    1.511900
H     9.474900   -0.993900    2.001500
H     8.613000   -2.339200    1.990600
C    10.588500   -2.653000    1.541000
C    10.810000   -4.010200    1.477100
H    10.161300   -4.701500    1.420100
C    12.970000   -5.359800    1.402000
H    13.778000   -5.257800    1.964300
H    12.453900   -6.131600    1.748800
C    13.393100   -5.647200   -0.029100
C    12.915200   -6.764700   -0.706900
H    12.305600   -7.352000   -0.277500
C    13.327500   -7.028400   -2.013900
H    12.994300   -7.794300   -2.468100
C    14.209100   -6.188600   -2.646400
H    14.483400   -6.370400   -3.536300
C    14.699300   -5.071400   -1.979800
H    15.310500   -4.485800   -2.413800
C    14.288900   -4.814500   -0.670400
H    14.629900   -4.054300   -0.213900
N    11.798400   -2.039200    1.617900
N    12.744600   -2.945100    1.607400
N    12.147300   -4.141700    1.512500
C    11.951900    8.231900    5.519100
Cl   11.036600    7.964600    4.036200
Cl   13.403200    9.186100    5.155700
Cl   10.955300    9.054200    6.709600
B     8.951800    8.037800    0.866600
F     8.493100    9.328200    0.572800
F     8.626800    7.201600   -0.191200
F    10.323900    8.095800    1.000900
F     8.402200    7.575000    2.018000

QM/MM links (counting starts at zero)
 12   67
 15   39
 18   53
 32  118
 35   90
 38  104
