340
QM: 171 at, MM: 169 at, Links: 12
Fe    3.151600   20.006600   11.589100
Fe    3.019900   19.951700    7.792100
Fe    0.000000   20.931100   13.427800
P     2.437000   19.273400   14.754500
P     2.352000   17.471400    9.835400
P     2.315600   22.992000   12.473300
P     0.000000   20.931100    8.670500
O     3.269000   19.530400   13.529400
O     3.196200   19.867800   15.971000
H     2.792200   19.662700   16.678500
O     1.051400   19.860900   14.753600
O     0.873700   17.393700   10.167000
O     3.121900   18.147300   10.968100
O     2.591500   18.134300    8.498800
O     1.620900   23.811400   11.420700
O     1.315700   22.368000   13.447900
O     3.262700   21.936600   11.878500
O     1.087000   19.998600   11.847300
H     0.577700   19.532900   11.195300
O     3.248900   20.544300    9.672800
H     3.512200   21.456500    9.650200
O     1.134000   20.519600    7.734000
N     5.333200   19.903400   11.757100
N     5.149100   19.493100    7.565800
C     6.095100   20.945800   11.512600
H     5.666000   21.760000   11.278500
C     7.476600   20.941600   11.571600
H     7.983100   21.716000   11.358300
C     8.075200   19.798700   11.942700
H     9.021300   19.771500   12.020700
C     7.328000   18.635000   12.220100
H     7.734000   17.812400   12.461200
C     5.931900   18.789800   12.110900
H     5.387700   18.036300   12.305100
C     5.754000   19.825900    6.405700
H     5.243200   20.242500    5.722500
C     7.089400   19.579000    6.182000
H     7.510100   19.842700    5.372200
C     7.794700   18.925900    7.187800
H     8.717800   18.729100    7.071600
C     7.171000   18.572200    8.330600
H     7.650300   18.120100    9.013800
C     5.846100   18.865200    8.504000
H     5.414900   18.611900    9.312100
Fe   -3.151600   21.855600   11.589100
Fe   -0.924500   17.779500    5.751800
Fe    0.924500   24.082700    5.751800
Fe   -3.019900   21.910500    7.792100
Fe   -0.979400   17.911200    9.548800
Fe    0.979400   23.951000    9.548800
Fe    0.000000   20.931100    3.913100
P    -2.437000   22.588800   14.754500
P    -1.657700   18.494100    2.586400
P     1.657700   23.368100    2.586400
P    -2.352000   24.390800    9.835400
P    -3.459700   18.579100    7.505500
P     3.459700   23.283100    7.505500
P    -2.315600   18.870200   12.473300
P     2.060900   18.615500    4.867600
P    -2.060900   23.246700    4.867600
O    -3.269000   22.331800   13.529400
O    -1.400700   17.662100    3.811500
O     1.400700   24.200100    3.811500
O    -3.196200   21.994400   15.971000
O    -1.063300   17.734900    1.369900
O     1.063300   24.127300    1.369900
H    -2.792200   22.199500   16.678500
H    -1.268400   18.138900    0.662400
H     1.268400   23.723300    0.662400
O    -1.051400   22.001300   14.753600
O    -1.070200   19.879700    2.587300
O     1.070200   21.982500    2.587300
O    -0.873700   24.468500   10.167000
O    -3.537400   20.057400    7.173900
O     3.537400   21.804800    7.173900
O    -3.121900   23.714900   10.968100
O    -2.783800   17.809200    6.372800
O     2.783800   24.053000    6.372800
O    -2.591500   23.727900    8.498800
O    -2.796800   18.339600    8.842100
O     2.796800   23.522600    8.842100
O    -1.620900   18.050800   11.420700
O     2.880300   19.310200    5.920200
O    -2.880300   22.552000    5.920200
O    -1.315700   19.494200   13.447900
O     1.436900   19.615400    3.893000
O    -1.436900   22.246800    3.893000
O    -3.262700   19.925600   11.878500
O     1.005500   17.668400    5.462400
O    -1.005500   24.193800    5.462400
O    -1.087000   21.863600   11.847300
O    -0.932500   19.844100    5.493600
O     0.932500   22.018100    5.493600
H    -0.577700   22.329300   11.195300
H    -1.398200   20.353400    6.145600
H     1.398200   21.508800    6.145600
O    -3.248900   21.317900    9.672800
O    -0.386800   17.682200    7.668100
O     0.386800   24.180000    7.668100
H    -3.512200   20.405700    9.650200
H     0.525400   17.418900    7.690700
H    -0.525400   24.443300    7.690700
O    -1.134000   21.342600    7.734000
O    -0.411500   19.797100    9.606900
O     0.411500   22.065100    9.606900
N    -5.333200   21.958800   11.757100
N    -1.027700   15.597900    5.583800
N     1.027700   26.264300    5.583800
N    -5.149100   22.369100    7.565800
N    -1.438000   15.782000    9.775100
N     1.438000   26.080200    9.775100
C    -6.095100   20.916400   11.512600
C     0.014700   14.836000    5.828300
C    -0.014700   27.026200    5.828300
H    -5.666000   20.102200   11.278500
H     0.828900   15.265100    6.062400
H    -0.828900   26.597100    6.062400
C    -7.476600   20.920600   11.571600
C     0.010500   13.454500    5.769300
C    -0.010500   28.407700    5.769300
H    -7.983100   20.146200   11.358300
H     0.784900   12.948000    5.982600
H    -0.784900   28.914200    5.982600
C    -8.075200   22.063500   11.942700
C    -1.132400   12.855900    5.398200
C     1.132400   29.006300    5.398200
H    -9.021300   22.090700   12.020700
H    -1.159600   11.909800    5.320200
H     1.159600   29.952400    5.320200
C    -7.328000   23.227200   12.220100
C    -2.296100   13.603100    5.120800
C     2.296100   28.259100    5.120800
H    -7.734000   24.049800   12.461200
H    -3.118700   13.197100    4.879700
H     3.118700   28.665100    4.879700
C    -5.931900   23.072400   12.110900
C    -2.141300   14.999200    5.230000
C     2.141300   26.863000    5.230000
H    -5.387700   23.825900   12.305100
H    -2.894800   15.543400    5.035800
H     2.894800   26.318800    5.035800
C    -5.754000   22.036300    6.405700
C    -1.105200   15.177100   10.935200
C     1.105200   26.685100   10.935200
H    -5.243200   21.619700    5.722500
H    -0.688600   15.687900   11.618400
H     0.688600   26.174300   11.618400
C    -7.089400   22.283200    6.182000
C    -1.352100   13.841700   11.158900
C     1.352100   28.020500   11.158900
H    -7.510100   22.019500    5.372200
H    -1.088400   13.421000   11.968700
H     1.088400   28.441200   11.968700
C    -7.794700   22.936300    7.187800
C    -2.005200   13.136400   10.153100
C     2.005200   28.725800   10.153100
H    -8.717800   23.133100    7.071600
H    -2.202000   12.213300   10.269300
H     2.202000   29.648900   10.269300
C    -7.171000   23.290000    8.330600
C    -2.358900   13.760100    9.010300
C     2.358900   28.102100    9.010300
H    -7.650300   23.742100    9.013800
H    -2.811000   13.280800    8.327100
H     2.811000   28.581400    8.327100
C    -5.846100   22.997000    8.504000
C    -2.065900   15.085000    8.836900
C     2.065900   26.777200    8.836900
H    -5.414900   23.250300    9.312100
H    -2.319200   15.516200    8.028800
H     2.319200   26.346000    8.028800
C     9.766500    1.724700    9.204500
H     9.797800    0.787000    9.341500
N     9.607400    4.316000    8.856000
C     9.594800    3.436900    7.810300
H     9.578100    3.794800    6.929400
C     9.607400    2.109900    7.945600
H     9.509000    1.504900    7.219000
C     9.816700    3.767600   10.172200
H     9.906700    4.284600   10.964700
C     9.871100    2.344300   10.127100
H    10.009300    1.883800   10.947300
O     1.540500   19.913800    0.775100
O    10.465600    0.000000    4.335200
C     2.310800   17.481700   15.012000
C     1.394000   16.912300   13.910900
H     1.749800   17.159300   13.031700
H     0.491900   17.280700   14.013200
H     1.358400   15.934800   13.987200
C     3.738300   16.862100   14.906200
H     4.303400   17.220000   15.622400
H     4.129700   17.088200   14.037500
H     3.679700   15.886700   14.994700
C     1.762400   17.138400   16.418400
H     2.350600   17.521400   17.101600
H     1.726800   16.165100   16.525900
H     0.862400   17.511000   16.517200
C     2.991100   15.777900    9.709200
C     2.771300   15.026400   11.021900
H     1.814700   15.013900   11.236900
H     3.263200   15.474400   11.741500
H     3.095700   14.105500   10.928200
C     4.456200   15.792500    9.365800
H     4.956500   16.227900   10.087200
H     4.590200   16.286500    8.531700
H     4.774400   14.871500    9.256600
C     2.227100   15.074600    8.543900
H     1.268400   15.047400    8.750200
H     2.564100   14.159900    8.438100
H     2.367300   15.572700    7.713200
C     3.374100   24.095900   13.447900
C     2.497100   25.090100   14.236900
H     1.906800   24.594000   14.843800
H     1.955000   25.615500   13.612600
H     3.070600   25.688700   14.758800
C     4.184100   23.283800   14.446700
H     3.577100   22.808600   15.050200
H     4.759700   23.884500   14.966900
H     4.740900   22.637000   13.966400
C     4.295100   24.849400   12.514900
H     3.761300   25.364300   11.873300
H     4.862300   24.215200   12.031100
H     4.858100   25.460600   13.035200
C    -2.310800   24.380500   15.012000
C    -3.449400   18.620300    2.328900
C     3.449400   23.241900    2.328900
C    -1.394000   24.949900   13.910900
C    -4.018800   19.537100    3.430000
C     4.018800   22.325100    3.430000
H    -1.749800   24.702900   13.031700
H    -3.771800   19.181300    4.309200
H     3.771800   22.680900    4.309200
H    -0.491900   24.581500   14.013200
H    -3.650400   20.439200    3.327700
H     3.650400   21.423000    3.327700
H    -1.358400   25.927400   13.987200
H    -4.996300   19.572700    3.353700
H     4.996300   22.289500    3.353700
C    -3.738300   25.000100   14.906200
C    -4.069000   17.192800    2.434700
C     4.069000   24.669400    2.434700
H    -4.303400   24.642200   15.622400
H    -3.711100   16.627700    1.718500
H     3.711100   25.234500    1.718500
H    -4.129700   24.774000   14.037500
H    -3.842900   16.801400    3.303400
H     3.842900   25.060800    3.303400
H    -3.679700   25.975500   14.994700
H    -5.044400   17.251400    2.346200
H     5.044400   24.610800    2.346200
C    -1.762400   24.723800   16.418400
C    -3.792700   19.168700    0.922500
C     3.792700   22.693500    0.922500
H    -2.350600   24.340800   17.101600
H    -3.409700   18.580500    0.239300
H     3.409700   23.281700    0.239300
H    -1.726800   25.697100   16.525900
H    -4.766000   19.204300    0.815000
H     4.766000   22.657900    0.815000
H    -0.862400   24.351200   16.517200
H    -3.420100   20.068700    0.823700
H     3.420100   21.793500    0.823700
C    -2.991100   26.084300    9.709200
C    -5.153200   17.940000    7.631700
C     5.153200   23.922200    7.631700
C    -2.771300   26.835800   11.021900
C    -5.904700   18.159800    6.319000
C     5.904700   23.702400    6.319000
H    -1.814700   26.848300   11.236900
H    -5.917200   19.116400    6.104000
H     5.917200   22.745800    6.104000
H    -3.263200   26.387800   11.741500
H    -5.456700   17.667900    5.599400
H     5.456700   24.194300    5.599400
H    -3.095700   27.756700   10.928200
H    -6.825600   17.835400    6.412700
H     6.825600   24.026800    6.412700
C    -4.456200   26.069700    9.365800
C    -5.138600   16.474900    7.975100
C     5.138600   25.387300    7.975100
H    -4.956500   25.634300   10.087200
H    -4.703200   15.974600    7.253700
H     4.703200   25.887600    7.253700
H    -4.590200   25.575700    8.531700
H    -4.644600   16.340900    8.809200
H     4.644600   25.521300    8.809200
H    -4.774400   26.990700    9.256600
H    -6.059600   16.156700    8.084300
H     6.059600   25.705500    8.084300
C    -2.227100   26.787600    8.543900
C    -5.856500   18.704000    8.797000
C     5.856500   23.158200    8.797000
H    -1.268400   26.814800    8.750200
H    -5.883700   19.662700    8.590700
H     5.883700   22.199500    8.590700
H    -2.564100   27.702300    8.438100
H    -6.771200   18.367000    8.902800
H     6.771200   23.495200    8.902800
H    -2.367300   26.289500    7.713200
H    -5.358400   18.563800    9.627700
H     5.358400   23.298400    9.627700
C    -3.374100   17.766300   13.447900
C     3.164800   17.557000    3.893000
C    -3.164800   24.305200    3.893000
C    -2.497100   16.772100   14.236900
C     4.159000   18.434000    3.104000
C    -4.159000   23.428200    3.104000
H    -1.906800   17.268200   14.843800
H     3.662900   19.024300    2.497100
H    -3.662900   22.837900    2.497100
H    -1.955000   16.246700   13.612600
H     4.684400   18.976100    3.728300
H    -4.684400   22.886100    3.728300
H    -3.070600   16.173500   14.758800
H     4.757600   17.860500    2.582100
H    -4.757600   24.001700    2.582100
C    -4.184100   18.578400   14.446700
C     2.352700   16.747000    2.894200
C    -2.352700   25.115200    2.894200
H    -3.577100   19.053600   15.050200
H     1.877500   17.354000    2.290700
H    -1.877500   24.508200    2.290700
H    -4.759700   17.977700   14.966900
H     2.953400   16.171400    2.374000
H    -2.953400   25.690800    2.374000
H    -4.740900   19.225200   13.966400
H     1.705900   16.190200    3.374500
H    -1.705900   25.672000    3.374500
C    -4.295100   17.012800   12.514900
C     3.918300   16.636000    4.826000
C    -3.918300   25.226200    4.826000
H    -3.761300   16.497900   11.873300
H     4.433200   17.169800    5.467600
H    -4.433200   24.692400    5.467600
H    -4.862300   17.647000   12.031100
H     3.284100   16.068800    5.309800
H    -3.284100   25.793400    5.309800
H    -4.858100   16.401600   13.035200
H     4.529500   16.073000    4.305700
H    -4.529500   25.789200    4.305700

QM/MM links (counting starts at zero)
  3  184
  4  197
  5  210
 51  223
 52  224
 53  225
 54  262
 55  263
 56  264
 57  301
 58  302
 59  303
