103
QM: 69 at, MM: 34 at, Links: 2
Fe    9.927200    8.371200    5.964300
O     8.331200   12.182600    6.630900
O     8.737800    9.806200    5.583900
O     4.491800    8.538700    7.154500
O     8.292700    4.680600    5.003200
O     8.640200    6.998200    6.262200
O     4.663300    8.465900    4.205300
N    10.088300    8.047000    3.860600
N    11.572400    6.945200    5.804300
N    11.593600    9.746100    6.217700
N    10.030200    8.645900    8.092600
C     7.400500   11.400400    6.702200
C     7.566900   10.009300    6.130200
C     6.542500    9.104700    6.159900
C     5.328400    9.403100    6.942700
C     3.955900   11.121300    8.149400
H     3.289900   10.462400    8.301200
C     3.761500   12.410300    8.598200
H     2.963000   12.630500    9.061400
C     4.706200   13.377100    8.382800
H     4.549000   14.265700    8.678900
C     5.887200   13.069200    7.737800
H     6.544300   13.740800    7.594900
C     6.109000   11.764200    7.297400
C     5.124200   10.783000    7.474100
C     7.379800    5.497600    4.931400
C     7.530000    6.858500    5.578500
C     6.549600    7.794900    5.454700
C     5.408100    7.554000    4.554900
C     3.986200    5.864500    3.380500
H     3.347800    6.545800    3.205000
C     3.734800    4.557900    2.971300
H     2.918500    4.347400    2.536300
C     4.662400    3.572000    3.193500
H     4.482200    2.683400    2.909400
C     5.863600    3.862400    3.830300
H     6.510900    3.181100    3.972300
C     6.109200    5.164200    4.256200
C     5.167400    6.177200    4.045700
C     9.500600    8.784100    2.909900
H     9.089100    9.604100    3.155800
C     9.469400    8.398000    1.595500
H     9.033500    8.932400    0.943200
C    10.090100    7.217400    1.238800
H    10.081200    6.928600    0.335500
C    10.715100    6.462800    2.200400
H    11.153300    5.652400    1.968500
C    10.700400    6.901500    3.512600
C    11.275700    6.100700    4.639300
H    10.632800    5.395500    4.901400
H    12.107600    5.658700    4.335900
C    12.824800    7.726300    5.579900
H    12.884000    7.994300    4.629200
H    13.611300    7.161600    5.790600
C    12.833700    8.956400    6.456100
H    12.881700    8.689900    7.407200
H    13.626900    9.509900    6.248200
C    11.278100   10.582000    7.398300
H    10.626100   11.284000    7.144500
H    12.101000   11.028700    7.719300
C    10.701800    9.728500    8.497300
C    10.799700   10.058700    9.834200
H    11.295700   10.821300   10.110200
C    10.165700    9.257900   10.764800
H    10.201300    9.479600   11.689200
C     9.480600    8.141100   10.354200
H     9.053500    7.574800   10.985300
C     9.425000    7.861900    9.010700
H     8.946700    7.094600    8.718800
C    11.698300    6.099100    7.016600
H    11.969700    6.655800    7.775600
H    12.376800    5.406700    6.862900
H    10.837500    5.676300    7.212500
C    11.752400   10.633100    5.029000
H    11.989700   10.092200    4.246800
H    12.461300   11.287200    5.201700
H    10.908700   11.102100    4.856800
Cl   10.782800    3.759800   10.443600
O    11.511500    4.227700    9.342000
O     9.934300    4.762100   10.929000
O    10.010900    2.624400   10.017500
O    11.701000    3.399700   11.462800
O    13.978400    8.969100    9.772300
H    14.498900    8.417100   10.180600
H    13.911600    9.711000   10.166500
O     8.059100    4.195800   12.899900
H     7.445200    3.769800   13.334000
H     7.890100    5.006200   12.794300
C     7.042600   11.780100   -0.750800
H     6.399700   12.289100   -0.213500
H     6.964700   12.043400   -1.691700
H     7.950100   11.966800   -0.431700
C     6.597700    7.453500   -0.638200
H     6.548800    6.504300   -0.649900
C     7.565300    8.107600   -1.391300
H     8.179300    7.606700   -1.916900
C     7.636500    9.495600   -1.374900
H     8.299400    9.942300   -1.888800
C     6.740100   10.229400   -0.607700
C     5.772400    9.573800    0.145500
H     5.158500   10.076300    0.668700
C     5.701200    8.185800    0.129000
H     5.038400    7.739100    0.642900

QM/MM links (counting starts at zero)
  8   69
  9   73
