113
QM: 41 at, MM: 72 at, Links: 12
Fe    3.434200    4.528800    7.299400
Cl    2.910300   10.073000    8.788300
Cl    8.592800    2.699700    9.175400
Cl    4.268400    4.424100    1.591700
B     5.770500    6.260300    6.378500
H     6.532900    6.831200    6.076000
N     4.712700    7.083800    7.142300
N     3.628500    6.435100    7.675100
N     6.245600    5.122300    7.303100
N     5.313700    4.230300    7.776300
N     5.054600    5.587800    5.185000
N     3.934000    4.829700    5.428100
C     4.656300    8.399300    7.426400
C     3.498600    8.589300    8.164800
C     2.876000    7.354800    8.312400
C     7.480200    4.753600    7.702600
C     7.324700    3.606200    8.449600
C     5.969700    3.295900    8.494700
C     5.348500    5.576900    3.868500
C     4.371500    4.802900    3.263800
C     3.496000    4.353300    4.248200
Cl    3.958000   -1.015400    5.810400
Cl   -1.724400    6.357900    5.423300
Cl    2.600000    4.633500   13.007000
B     1.097800    2.797300    8.220200
H     0.335400    2.226400    8.522700
N     2.155600    1.973800    7.456400
N     3.239800    2.622500    6.923600
N     0.622800    3.935300    7.295600
N     1.554600    4.827300    6.822400
N     1.813700    3.469800    9.413700
N     2.934300    4.227900    9.170600
C     2.212000    0.658300    7.172300
C     3.369800    0.468300    6.433900
C     3.992400    1.702800    6.286300
C    -0.611900    4.304000    6.896100
C    -0.456300    5.451400    6.149100
C     0.898600    5.761700    6.104000
C     1.519800    3.480700   10.730200
C     2.496800    4.254700   11.334900
C     3.372400    4.704300   10.350500
C    -1.697000    7.298600   10.949000
H    -1.026900    7.881900   10.514000
C    -2.382500    6.481600    9.893500
H    -1.707000    5.921900    9.435100
H    -3.029300    5.872900   10.331500
C    -3.104400    7.293200    8.871600
H    -3.527600    6.695400    8.220500
H    -2.467000    7.878300    8.411800
H    -3.789700    7.836600    9.311100
H    -2.367000    7.881900   11.384100
C    -1.011400    6.481600   12.004500
H    -1.686900    5.921900   12.462900
H    -0.364600    5.872900   11.566600
C    -0.289500    7.293200   13.026400
H     0.133700    6.695400   13.677500
H    -0.926900    7.878300   13.486300
H     0.395800    7.836600   12.587000
P     7.434000    8.406400   10.949000
F     7.491300    9.549600    9.828400
F     7.378800    7.279200   12.065000
F     5.834300    8.425000   10.874300
F     7.376600    9.549600   12.069600
F     7.489200    7.279200    9.833100
F     9.033700    8.425000   11.023800
C     5.676400    9.393800    6.993100
H     6.378700    8.939900    6.481800
H     6.071400    9.822100    7.781100
H     5.250700   10.073900    6.430700
C     1.596600    7.102600    9.044500
H     1.377500    6.148300    8.998600
H     0.875500    7.622900    8.632200
H     1.698200    7.371100    9.981100
C     8.720600    5.524600    7.386800
H     8.492500    6.296800    6.829300
H     9.133600    5.833100    8.219100
H     9.348400    4.949100    6.903700
C     5.346000    2.134500    9.204600
H     4.375500    2.153900    9.073100
H     5.707600    1.298900    8.843900
H     5.547100    2.190100   10.162200
C     6.521800    6.280500    3.284600
H     7.012400    6.742500    3.995700
H     7.111200    5.628400    2.851100
H     6.213600    6.934500    2.621900
C     2.292500    3.490400    4.032700
H     1.855100    3.320500    4.892000
H     1.666800    3.947300    3.432200
H     2.567200    2.639400    3.632200
C     1.192000   -0.336200    7.605600
H     0.489700    0.117700    8.116900
H     0.796900   -0.764500    6.817600
H     1.617600   -1.016300    8.168000
C     5.271700    1.955000    5.554200
H     5.490900    2.909300    5.600100
H     5.992900    1.434700    5.966500
H     5.170100    1.686500    4.617600
C    -1.852200    3.533000    7.211900
H    -1.624200    2.760800    7.769400
H    -2.265300    3.224500    6.379600
H    -2.480100    4.108500    7.695000
C     1.522300    6.923100    5.394100
H     2.492800    6.903700    5.525600
H     1.160700    7.758700    5.754800
H     1.321200    6.867500    4.436500
C     0.346600    2.777100   11.314100
H    -0.144000    2.315100   10.603000
H    -0.242900    3.429200   11.747600
H     0.654800    2.123100   11.976800
C     4.575800    5.567200   10.566000
H     5.013300    5.737100    9.706700
H     5.201500    5.110300   11.166500
H     4.301200    6.418200   10.966500

QM/MM links (counting starts at zero)
 12   65
 14   69
 15   73
 17   77
 18   81
 20   85
 32   89
 34   93
 35   97
 37  101
 38  105
 40  109
