46
Coordinates from ORCA-job CUJNUQ-CH3OH_1_4_tpss_d4_lanl2dz_631gpol_Mn2.opt
  Mn  3.17415041648212      2.77542146758422     -0.01851500345099
  O   5.05974921290127      1.27067393469872      0.94046582136481
  N   2.30321353714864      2.70460440647744      1.81783514945917
  N   1.21794416831223      3.49942594196402      1.99163275931906
  C   0.72414901057605      3.40844283858417      3.25060313502640
  C   1.53065158361489      2.50873302368925      3.93975737873178
  C   2.49965757614111      2.09761783812271      3.00560956953843
  N   4.38150039721039      4.24429668861095      0.69319803159796
  N   5.33445280625360      3.95601731661252      1.62002033171566
  C   5.91299710934032      5.08005006149592      2.11679817831566
  C   5.30402630250981      6.15935651917088      1.48800993560776
  C   4.35620916782221      5.59633871426593      0.61207695769019
  H   0.93169449167579      4.03907272869813      1.16022408005328
  H   -0.14479733442107      3.97794735895923      3.55238131435062
  H   1.42986889146825      2.19438945700408      4.96971886401581
  H   3.32226515136802      1.40652500487371      3.13602913663460
  H   5.50640133253184      2.96602387552176      1.80910421843188
  H   6.69961073447245      5.02410851029188      2.85773779463169
  H   5.51399056574780      7.20917463901825      1.64139428650628
  H   3.66218166821872      6.08677404171314     -0.06102595087127
  N   1.56253119979000      4.03451913875927     -0.67272577163029
  N   1.85328015847360      4.97852972561664     -1.39992880759944
  N   2.15868489565516      5.87915209453860     -2.07653989854935
  N   4.10350730420077      2.78408935002697     -1.80358883355345
  N   4.89612692954711      3.81683039241838     -2.21089509282259
  C   5.26988735725127      3.69018513536579     -3.50502270729437
  C   4.71360342758289      2.50212996309920     -3.97197340410439
  C   3.99556326242256      1.97916825107002     -2.88582407755105
  H   3.40790469854639      1.07377683334485     -2.81800548218856
  H   4.81138672820910      2.08256391362581     -4.96396937908729
  H   5.88397271828703      4.43942770398670     -3.98730137795240
  H   5.06694744507680      4.57803708491734     -1.55898044679124
  N   2.09728150843369      1.16256080795378     -0.60834344245864
  N   0.91850221455673      1.42387338941096     -1.22709696019521
  C   0.27648121457382      0.28570406898660     -1.58770307338580
  C   1.07926634452412     -0.77843643801609     -1.18752471395078
  C   2.20077700308742     -0.18282301920932     -0.57985465948856
  H   3.06918112857892     -0.64968552225826     -0.13357329999593
  H   0.87807697738138     -1.83370160612221     -1.31374749677473
  H   -0.68200890485693      0.31915273141786     -2.08838987876946
  H   0.68925008119261      2.42713316568183     -1.31631413588076
  C   6.08413044939823      0.83664938139032     -0.00052146834220
  H   6.48290001003297      1.75013376264134     -0.44573161631487
  H   6.87976809182725      0.29606789295001      0.52530557236755
  H   5.64564265995405      0.21156256716073     -0.78686815265761
  H   4.72977830689822      0.48367486388574      1.41783261630266
