42
Coordinates from ORCA-job CUJNUQ-OH_1_5_tpss_d4_lanl2dz_631gpol_Mn2.opt
  Mn  3.24170229436338      2.74580647211891     -0.02178256556021
  O   4.75606754015518      1.76741655051906      0.47471423107013
  N   2.45547393788392      2.56833050241442      1.92107796217131
  N   1.19700950319758      2.99635900815847      2.18226925830268
  C   0.88085229738407      2.86031922962551      3.49115436497709
  C   1.99220609794563      2.30248439943488      4.11998588907072
  C   2.94638240863541      2.14200300825881      3.10218732809087
  N   4.36579937514395      4.55233782625408      0.62824230977509
  N   5.54132276085098      4.24908370056550      1.23623072745141
  C   6.20576749529988      5.35822674684102      1.63877802610114
  C   5.42043665590359      6.45059428833114      1.27859220863215
  C   4.28818409351764      5.89771878831253      0.65331499996422
  H   0.68845041275018      3.41250548199709      1.40062429822358
  H   -0.08678270662372      3.16291116306026      3.86970289446157
  H   2.09240806545058      2.05271279247500      5.16753425264130
  H   3.95706096867089      1.75878564634163      3.15507060334561
  H   5.76819886562070      3.25246190991665      1.28420608698433
  H   7.16353123395177      5.29132421845891      2.13840716849780
  H   5.64037276891873      7.49660584319299      1.44477260100430
  H   3.43426164795855      6.39952826812656      0.21642569253162
  N   1.59410757290469      3.68691209375024     -0.51589538213322
  N   1.58499280218108      4.79855573337751     -1.04746174827717
  N   1.51499139861503      5.83715011614639     -1.55652093034700
  N   4.08395137437340      2.90165705002953     -1.93298564719667
  N   5.22705371228325      2.19651476267343     -2.11980929952944
  C   5.70091637385637      2.33792909548774     -3.37787665436051
  C   4.81837058371405      3.18102269630566     -4.05186491408645
  C   3.82746201255555      3.50601244874341     -3.11132552830565
  H   2.96216550962205      4.14634929761063     -3.21944548684245
  H   4.88778316795842      3.51276899715285     -5.07898619242118
  H   6.60915559168703      1.84238737728501     -3.69523501187895
  H   5.55936659254638      1.68478252638951     -1.29592876156004
  N   2.18784883251578      0.88196138002791     -0.68856918817509
  N   0.95562181830191      1.01372007649778     -1.23729128751264
  C   0.46685670848919     -0.16681528741519     -1.68891867417775
  C   1.43284065820298     -1.13152032460991     -1.41515539331635
  C   2.48201114689607     -0.42823252114105     -0.79673955416763
  H   3.43349802096149     -0.79790956939936     -0.43466119899167
  H   1.38033413250446     -2.18938049874725     -1.63476288743505
  H   -0.50580864828038     -0.23161002449048     -2.15907808572107
  H   0.57451264476583      1.95947993824271     -1.27820660420007
  H   4.50770227636628      0.94053879167933      0.93525009289937
