41
Coordinates from ORCA-job CUJNUQ-oxo_1_4_tpss_d4_lanl2dz_631gpol_Mn2.opt
  Mn  3.30645968101727      2.73484478122135     -0.01999240734925
  O   4.63312517761545      1.78272052683927      0.44717972968732
  N   2.49872921246214      2.56281589846555      1.77808293905325
  N   1.34698390716229      3.19208261086357      2.11029490701546
  C   0.99876830951210      2.92670642726135      3.38957331251721
  C   1.97894439394627      2.08287030246287      3.91434232904021
  C   2.89568165627568      1.88128153814187      2.87149820989178
  N   4.28424321074623      4.36195803832298      0.58783198658071
  N   5.45804640393002      4.12474526122115      1.22283804263738
  C   6.03567313389142      5.27269270741618      1.63469870037658
  C   5.19254037441377      6.31570586714385      1.24677431127023
  C   4.11086523727696      5.70157570127121      0.59836527889447
  H   0.91044868834190      3.73755140981424      1.35919079684255
  H   0.10116891565327      3.34756743948077      3.82375001917542
  H   2.01714778825149      1.67315780763604      4.91463016144684
  H   3.80466206007117      1.29765736580102      2.82225802520211
  H   5.70817096653421      3.12760995717304      1.26882299069109
  H   6.98231354234815      5.26814840853571      2.15899523713686
  H   5.34526318488561      7.37407632234531      1.40970677497687
  H   3.24544084687645      6.15142836687974      0.13183652018629
  N   1.61957050141406      3.80627180980044     -0.53383316906097
  N   1.58094209334243      4.86009042984595     -1.16197255990945
  N   1.50845101442865      5.85760229088184     -1.75584307991525
  N   4.09597465963279      2.90880843883213     -1.84094560900448
  N   5.20391471222975      2.15894891501452     -2.06027519568338
  C   5.65143470862096      2.30040443507301     -3.32529691369638
  C   4.78877722593685      3.19181218863309     -3.96604709445828
  C   3.83213336408488      3.54518432209852     -3.00283947715952
  H   2.99733001830084      4.22756369779843     -3.08346627132724
  H   4.84953670895197      3.53849917463979     -4.98882425925425
  H   6.53069202192175      1.77325952510667     -3.67188933792809
  H   5.51203170658512      1.62846045622310     -1.23380062305491
  N   2.31439341393193      1.12790241756780     -0.61116229509964
  N   1.09075830133851      1.20994830120803     -1.18465919465196
  C   0.61742215914690     -0.01687675521983     -1.49960199218998
  C   1.58774946152280     -0.94232463310893     -1.11211458385199
  C   2.63009455397198     -0.18183191705971     -0.56101485318275
  H   3.57735400525295     -0.47452367089280     -0.12935757961193
  H   1.53979194355745     -2.01781327381507     -1.21669078883091
  H   -0.35137625407016     -0.13987971165978     -1.96604840949686
  H   0.70404698868559      2.15649682073566     -1.26639457790513
