28
Coordinates from ORCA-job DUHMEZ-OH_2_2_tpss_d4_lanl2dz_631gpol_Co3.opt
  Cl  3.61717179857719      0.43137299491637      2.42259416230438
  Co  1.76016569413482      1.56080921609615      1.92396858118890
  N   2.82706360291988      3.24318956198651      2.10553227468554
  H   2.18557938931195      4.03854835064361      2.23138137830715
  H   3.42008938485758      3.19721801000331      2.94459476530869
  C   3.69214881046240      3.43399411383176      0.88345312829834
  H   4.57193737274145      2.79471285751217      1.00778584717801
  H   4.01197719685489      4.47999615357550      0.80927606028023
  C   2.85881262096551      3.00495940483608     -0.31435326581397
  H   2.00241912023556      3.67132636977728     -0.47622204084859
  H   3.45031165617244      2.97474243195358     -1.23708044973529
  N   2.32524859955631      1.63192254539483      0.00768255781781
  H   1.59000637064986      1.36382521073422     -0.65972709047660
  H   3.07891264174263      0.93463082613781     -0.08237821485791
  N   0.77300625253491     -0.16793757388408      1.75979336293835
  H   1.47165836267109     -0.92371905483350      1.71562060200098
  H   0.20993624243292     -0.20245349420848      0.90085566982902
  C   -0.11400621152472     -0.32891259040222      2.96683160200104
  H   -0.45866345898033     -1.36761529738351      3.04033782210516
  H   -0.97612798666465      0.33078411923351      2.82515118149649
  C   0.72460200965460      0.08739222370384      4.16303639445884
  H   0.13856292736148      0.11635607385579      5.08931253264462
  H   1.59293049232726     -0.56461834551307      4.30161281037243
  N   1.24406446905716      1.46577388741211      3.84295899914977
  H   2.02210687072694      1.70302890225169      4.47180553173052
  H   0.50017981866651      2.16802573325021      3.96276829404408
  O   0.21875886086776      2.40852096837636      1.65697803399913
  H   0.19932709168639      3.04623640074207      0.90483946959269
