32
Coordinates from ORCA-job DUHMEZ-CH3OH_2_1_tpss_d4_lanl2dz_631gpol_Co3.opt
  Cl  3.10334181180137      1.73970684165309      4.34371185621842
  Co  1.86299852766710      1.80863764389729      2.47845219478142
  N   3.36478240835626      2.65984004175728      1.53318748246736
  H   3.40900171020798      3.62249551469185      1.89135198585473
  H   4.26983373060129      2.23813965036484      1.78076640485366
  C   3.12427193911740      2.67719931186724      0.05095850182006
  H   3.40722803640857      1.69757098614766     -0.35374819450687
  H   3.74527275390674      3.43717347169655     -0.43784417977812
  C   1.63938894602930      2.95646449657558     -0.13841766267676
  H   1.38215846880192      3.95551773149194      0.22771702985236
  H   1.33225483716185      2.86876202001340     -1.18679570648730
  N   0.89124067998680      1.96373811955261      0.72388780840127
  H   -0.08799409809448      2.26675730621348      0.80729763057825
  H   0.84379976414282      1.05912182601259      0.23702565911240
  N   2.51174629477191      0.00309107201572      2.07981932560347
  H   3.30296037763543     -0.13139694780176      2.72938202105905
  H   2.87916080383168     -0.13590901426480      1.12968502232860
  C   1.43432820046080     -1.00674410192443      2.38625439732603
  H   1.86978337503775     -2.00918881990179      2.47391596848248
  H   0.72361644986496     -1.00756506793799      1.55070463424194
  C   0.78117599497336     -0.55093645553558      3.68172709871676
  H   -0.10626707901241     -1.14527071641247      3.92537206256429
  H   1.48787658612746     -0.59619897943608      4.51628490886134
  N   0.41289521468522      0.90335188830057      3.49295485853887
  H   0.35297053706728      1.35062208696177      4.41738987662769
  H   -0.52001663127766      0.96887383747784      3.06484890018151
  O   1.18634223801295      3.65514405170049      2.88172218871594
  C   1.68474448081525      4.52734672713346      3.98733480497029
  H   1.23681905312990      5.51172402851835      3.82613801134281
  H   1.41277832091642      4.09901116460731      4.95410117726659
  H   2.76884907728922      4.56427533423210      3.88706406191889
  H   0.20788718957553      3.69007495033182      2.92361987076254
