27
Coordinates from ORCA-job DUHMEZ-oxo_2_3_tpss_d4_lanl2dz_631gpol_Co3.opt
  Cl  3.09814301818199      2.00060546640315      4.32175840872810
  Co  1.80188962543694      2.05777937393491      2.47457406585371
  N   3.34734078865333      2.85566137853726      1.50258832583007
  H   3.43066254258073      3.81091620061005      1.87989850235383
  H   4.22358504993721      2.38000421139366      1.75835097979395
  C   3.09084996877710      2.86182599495867      0.02054692653826
  H   3.39375126629369      1.88707133447971     -0.37884883774890
  H   3.69925945639908      3.63665215765683     -0.46195459883222
  C   1.60115986465478      3.11594255298762     -0.17495495530805
  H   1.31483904387967      4.11240735547954      0.17883230807539
  H   1.30229986257056      3.01004032744983     -1.22467446959998
  N   0.85747982658738      2.11350484569216      0.68011086294764
  H   -0.11911396845088      2.41745999800096      0.79135622045143
  H   0.82777540458419      1.19435179085707      0.22071734480718
  N   2.43791850770194      0.14083188522861      2.11524463498249
  H   3.23246767028604      0.01096298107694      2.76064411649990
  H   2.79316102613282     -0.07427434678802      1.17447478227058
  C   1.33474471094975     -0.82149791420552      2.48791797732002
  H   1.73685025495368     -1.83401717542618      2.61085288700156
  H   0.60540694361993     -0.83502278432424      1.66887053704427
  C   0.72192411003951     -0.29669764181634      3.77796991386743
  H   -0.18221159519912     -0.85092783032331      4.05801330265433
  H   1.43721331608909     -0.32980612837788      4.60543640311735
  N   0.37673444467168      1.15195635077693      3.54838397320609
  H   0.33583826397353      1.66436033481910      4.44162983612490
  H   -0.54434711500605      1.25448386646128      3.10159534759275
  O   1.18177771170135      3.54552541445720      2.82646520442791
