78
Coordinates from ORCA-job AVIVIL-CH3OH_1_3_tpss_d4_lanl2dz_631gpol_Fe2.opt
  Fe  2.85672111506040      8.95898018960749      2.85940723067755
  H   4.02584730759686      7.93904229747184      3.01751617998408
  P   2.97795633435009      8.81881871008786      5.06755600797694
  O   1.72765696671316      7.92284890323372      5.61197167818334
  C   1.55409635108001      7.66300215029408      7.04824577567582
  H   1.62832841877325      8.61717061253579      7.58145783228476
  H   2.37125858685203      7.00813516184059      7.37284248303909
  C   0.19469333072051      7.00994375125194      7.23071318372799
  H   -0.60680661963938      7.68752401690648      6.91202454282548
  H   0.04043821208068      6.76489603341891      8.28974702971341
  H   0.12658612105358      6.08520938394039      6.64495587949308
  O   2.74788618844502     10.17319769702492      5.96052961821280
  C   3.82670378573598     11.11395053360996      6.26504658593826
  H   4.00269374816724     11.03722735352384      7.34411914752590
  H   4.73903555121756     10.80854578672356      5.74173376303120
  C   3.38959366725139     12.51105470896892      5.85540834575652
  H   2.44753535725747     12.78295272824014      6.34804975102147
  H   3.25912116533106     12.56042233124256      4.76830931149513
  H   4.15475907782847     13.24177228485906      6.15038463555338
  O   4.29882021102196      8.25084022743376      5.84345591843677
  C   4.99444240958141      7.06380477074641      5.33405199264311
  H   5.79111052249164      7.41207213562166      4.66522385243775
  H   4.29655054774910      6.45346978702794      4.74997217521174
  C   5.55124838081941      6.31073609693757      6.53215707930972
  H   6.21906077528473      6.95216724989574      7.11974921537444
  H   6.12115958885915      5.43807580045397      6.18620059905231
  H   4.74178918609326      5.95946775414703      7.18413728031237
  P   1.57145830423693      6.91546778450492      2.65868064528172
  O   2.30064887626730      5.65085641771845      3.37919424196326
  C   1.63684079395923      4.46840906408909      3.93089099584820
  H   0.59662528425871      4.72138741343823      4.15834865351883
  H   1.66000280592499      3.68737416389816      3.16035371472143
  C   2.40323787959581      4.04840667428437      5.17518907839731
  H   3.45144653252693      3.83343304054642      4.93367579588509
  H   1.95348484567810      3.14230160085475      5.60273878293572
  H   2.37035054846666      4.84456597594355      5.92866180595790
  O   1.47439739290365      6.53013503293565      1.07126255341906
  C   0.87159743435098      5.28519358916856      0.59586713149295
  H   1.58893435229423      4.47420546900059      0.77648408423767
  H   -0.04433575970809      5.09479954137628      1.16966418185388
  C   0.58055334139775      5.45479218551788     -0.88679449772743
  H   -0.13397692598733      6.27154598173958     -1.04742128672016
  H   0.15125340811375      4.52954143136494     -1.29315240646889
  H   1.50288972593934      5.68210430991833     -1.43504322092928
  O   0.02748558345003      6.69729229477296      3.19232567266479
  C   -0.80567175054737      7.87791983612952      3.38690636685324
  H   -0.89519457232780      8.41877860311758      2.43387842255272
  H   -0.31308438288994      8.52469787218891      4.12254751784536
  C   -2.16371796239563      7.40112384192399      3.87517378439892
  H   -2.62868827063784      6.73618220486098      3.13720137826690
  H   -2.82598435839948      8.26263371124383      4.03379623518308
  H   -2.06336694618848      6.85838937183782      4.82261676874058
  O   4.35619890120116     10.82483567486062      3.03471151867823
  N   1.46543334965985     10.32609853753082      2.50899674561508
  C   1.16486084959735     10.51915467745811      1.18135759686398
  C   0.12187853002344     11.37234284392659      0.78798884989375
  H   -0.11062178631401     11.50212847950694     -0.26557769413467
  C   -0.60667526785095     12.06007142697593      1.75840812024167
  H   -1.41610776501648     12.72555433884709      1.46701534020986
  C   -0.26785092055107     11.89084060635513      3.11020278914077
  H   -0.79542487808551     12.42529992188885      3.89608831773237
  C   0.76769503124949     11.02157397719964      3.44272403500197
  H   1.07575622300335     10.86018757108621      4.47205581628378
  N   3.00409570207528      9.04945390452361      0.89671039935546
  C   2.02382717062404      9.77139437826751      0.26464110686927
  C   1.88728671002731      9.75370021956870     -1.13158991351852
  H   1.09211414388166     10.31716413966198     -1.61255392692973
  C   2.78040825496424      9.00506767643205     -1.89731634310686
  H   2.69195920441197      8.98614759453628     -2.98108690203353
  C   3.78855268291352      8.27671144318449     -1.24670178690854
  H   4.50607889907128      7.68223720296961     -1.80648824686466
  C   3.85886078892214      8.31518163283219      0.14296936666778
  H   4.59388245698329      7.74650667570732      0.70351783341535
  C   5.73433505527490     10.40247389794590      2.89384677891190
  H   5.88765484450169      9.85673989888792      1.95380530291055
  H   6.40881912020473     11.26662310966009      2.94954296237310
  H   5.91916054501763      9.72843898739857      3.73350971183903
  H   4.12252968615054     11.37282531336397      2.25868872642441
