74
Coordinates from ORCA-job AVIVIL-OH_1_2_tpss_d4_lanl2dz_631gpol_Fe2.opt
  Fe  2.91935667188846      8.96762009993544      2.97903345996638
  H   3.77316170722736      7.66249998256793      2.89483415331313
  P   2.88331331583412      8.74431297871497      5.16422703086295
  O   1.58229647715490      7.97697671765771      5.77373231041937
  C   1.44491921821469      7.81452025655217      7.23223911447499
  H   1.46497965347636      8.81087673193499      7.68630552007813
  H   2.30883782449467      7.24045488446025      7.58670238183859
  C   0.13336155362812      7.09547678978131      7.49466470386459
  H   -0.71476956703283      7.67753228356468      7.11321854849093
  H   -0.00016632358406      6.96179840204534      8.57612102404672
  H   0.12549576615577      6.10541112039559      7.02302162593096
  O   2.75522869792550     10.13094756255335      6.01087628502268
  C   3.87749541674664     11.07115098350511      6.15412970957390
  H   3.96937403947344     11.23765854653666      7.23297901980188
  H   4.79014421915619     10.59785171578060      5.78075474342819
  C   3.56477269821246     12.35256271864191      5.39905571652007
  H   2.62728672207384     12.79981316116230      5.75419175750687
  H   3.49155867672899     12.13780874180389      4.32740146186816
  H   4.37333239034885     13.07893464215883      5.55770080150718
  O   4.17311234270710      8.07300422786810      5.87567987083086
  C   5.15920005076962      7.28349996167758      5.12032688520611
  H   5.56696885908863      7.93082846972882      4.33672633637324
  H   4.64033026258755      6.43595643188910      4.65869481711535
  C   6.21524401802366      6.83612042949543      6.11629754828474
  H   6.70115089663755      7.70194188655895      6.58211231991418
  H   6.98058767483246      6.24452679041800      5.59672800168949
  H   5.77138724688372      6.21531281751058      6.90435698614714
  P   1.67535545861562      7.12622189568922      2.67958556912247
  O   2.18896615732932      5.92550765172883      3.65179300464331
  C   1.32827692904976      4.92867796664400      4.28318406632220
  H   0.42895494539871      5.42863520277810      4.65648959816480
  H   1.03317385531764      4.18946519398826      3.52760936350340
  C   2.13474313173432      4.29615550203386      5.40545122979633
  H   3.03697135179641      3.81256217804524      5.01201073456943
  H   1.52919120148855      3.53663395907888      5.91734677893218
  H   2.43391433660349      5.05884303422978      6.13427149752237
  O   1.89360599108173      6.58890779644098      1.16586282458216
  C   1.28362420739026      5.34758983417736      0.68199809255386
  H   1.79926938184842      4.50864683965828      1.16636434021618
  H   0.22529287248561      5.34383834251910      0.96839983215418
  C   1.46235012028433      5.32022490415212     -0.82683333956336
  H   0.95359244897340      6.17491325914827     -1.28939730969407
  H   1.03572517173276      4.39520835962918     -1.23585814508268
  H   2.52672954671838      5.35879787344627     -1.08890647084505
  O   0.04708434863519      7.03407545495368      2.79732793489190
  C   -0.76486980284978      8.03668032472764      3.48434253850893
  H   -0.96589243480193      8.84463629656125      2.77030694969442
  H   -0.19921881922155      8.42862548535125      4.33577929529602
  C   -2.05120309789109      7.36024587465033      3.92958022716738
  H   -2.57944252404251      6.92731176924483      3.07157826263362
  H   -2.71012011157352      8.09789268364301      4.40691702693303
  H   -1.84296491266572      6.56239553596620      4.65259914736161
  O   4.38097869374285     10.02786337213911      3.30576917996345
  N   1.45416625880117     10.38097151030866      2.68683629017737
  C   1.23075763564328     10.69345544601973      1.37517488959516
  C   0.24348137260162     11.61862302091493      1.00625676490175
  H   0.07207076754320     11.85149652953235     -0.04086681663918
  C   -0.50696164937720     12.25219433520055      1.99893787819200
  H   -1.27431611277228     12.97388193507907      1.72792307578072
  C   -0.24387283136052     11.95557170691333      3.34154738113677
  H   -0.78870048143986     12.44177630165212      4.14661659314023
  C   0.74183023485634     11.01490222654925      3.64260337248616
  H   0.99139749825967     10.75710921019317      4.66749935467219
  N   3.05739008248407      9.21049928745211      1.01667103925555
  C   2.12336551705672     10.01243370570537      0.42517287828056
  C   2.06596711718653     10.15394766525881     -0.96767974289630
  H   1.30991661548212     10.78510259039746     -1.42637982999541
  C   2.99505696259798      9.47896849866200     -1.76288379131045
  H   2.96428366336473      9.58000499137234     -2.84528672547332
  C   3.96420294610637      8.67922210251548     -1.14596355687794
  H   4.71002732218873      8.14358849534891     -1.72734911859189
  C   3.95841915652245      8.56572495026349      0.24441858346972
  H   4.66485161220474      7.93981701626678      0.78037277485333
  H   4.64655735521560     10.44191254886885      2.45660434241789
