74
Coordinates from ORCA-job AVIVIL-OH_1_4_tpss_d4_lanl2dz_631gpol_Fe2.opt
  Fe  3.05293719714321      9.10985400398618      2.79058663897851
  H   3.85429061018764      7.74956648426525      2.59200139529981
  P   2.77229834666551      8.78998069650795      5.29140932846413
  O   1.44024405044356      8.08361731522480      5.92487243505656
  C   1.25110845021958      7.99776138561512      7.38424479783876
  H   1.18125773075980      9.01886120305164      7.77301289231626
  H   2.13630476333576      7.51108628913140      7.81022810881969
  C   -0.01742622222481      7.20125252272063      7.63659617809138
  H   -0.87990397906121      7.68186947005798      7.15781984813265
  H   -0.20896042684980      7.14687953540532      8.71634398240174
  H   0.07509584488858      6.17757465869519      7.25323614128801
  O   2.72279705655662     10.18473290202003      6.16676342416218
  C   3.90539133774066     11.02470870339108      6.38135831990423
  H   3.86900261271322     11.29078077451730      7.44338882232958
  H   4.80477274887932     10.42394995292336      6.20390462506934
  C   3.85884931505581     12.25303405604028      5.48395235481689
  H   2.93633574102453     12.82352070167998      5.65373815411284
  H   3.92718346633398     11.95936379206526      4.43060361346734
  H   4.71036620362775     12.90693689392488      5.71733165496942
  O   4.02825671786773      8.05260809225591      6.03706449779308
  C   5.05489070595715      7.30707705802519      5.30551246955599
  H   5.71541912960085      8.03780284885070      4.82130387169235
  H   4.57240270613643      6.69365315295192      4.53835453230377
  C   5.80692070063541      6.46425264647591      6.32204821159317
  H   6.24486235315894      7.09701018602240      7.10333186437517
  H   6.61629229979135      5.91623712678999      5.82163911972506
  H   5.13476536044387      5.73751568004365      6.79428591213290
  P   1.99703954455386      7.08562833955619      2.54476592331128
  O   2.39798064420772      6.12796200066351      3.79776482571039
  C   1.49497482080992      5.17112206843372      4.44009346729947
  H   0.61637500317454      5.71860632713396      4.79373393308049
  H   1.18339904909551      4.42335985364421      3.70083787671340
  C   2.26837067123522      4.54895439302202      5.58996453822090
  H   3.15265667933780      4.01570295622690      5.22078354678588
  H   1.62900264195730      3.83458935264757      6.12493919386356
  H   2.59196258882299      5.32754053279018      6.29056670482137
  O   2.36939472289777      6.30359039639605      1.18366064852427
  C   1.61511031294061      5.14808193687132      0.67500913562966
  H   1.92774821828640      4.27194248600265      1.25680740810946
  H   0.54768316384809      5.33290580585371      0.83177904875700
  C   1.96058499615724      4.99894767827919     -0.79665497518445
  H   1.64960160846713      5.88908334971636     -1.35690450568917
  H   1.43970981774431      4.12571519504508     -1.21060257213985
  H   3.03966926044620      4.85444441230702     -0.92909182682741
  O   0.36456913565819      6.99013020166759      2.47151880126821
  C   -0.50151015855959      7.91487143300756      3.20947382043117
  H   -0.65811601442430      8.79069077551454      2.56959440958542
  H   0.00002577365066      8.22324098255794      4.13392695557983
  C   -1.80966993892420      7.19455555402631      3.49264117730112
  H   -2.27590941242979      6.85511784905740      2.55973859969906
  H   -2.50340004736846      7.87934201112484      3.99830977175635
  H   -1.64913834299727      6.32468280886581      4.14088264865757
  O   4.55691940690775     10.03144558117214      3.11605132648880
  N   1.48238589101431     10.51299465886128      2.60697819181318
  C   1.05351948037354     10.81401996479073      1.34667761565428
  C   0.01635370437277     11.73479828158533      1.13211660855409
  H   -0.32120427712867     11.95644124688599      0.12396600222323
  C   -0.57327309187366     12.37838282808529      2.22183406653550
  H   -1.37628938862787     13.09543238849879      2.06579529522355
  C   -0.10370456165321     12.09271802359399      3.50775325990635
  H   -0.51753245000120     12.57995801053917      4.38679165241406
  C   0.91869590659247     11.15381684702177      3.65368596408015
  H   1.31397996545132     10.90535303799095      4.63498063616053
  N   2.75839333154864      9.30450429870056      0.64467240934358
  C   1.76427707821463     10.13185582365473      0.24484311678817
  C   1.47718959451703     10.31971576792813     -1.11646142841640
  H   0.67148582963777     10.97493920724899     -1.43511554668210
  C   2.25359060793404      9.65502998403635     -2.06956253421333
  H   2.05064801253535      9.79282919967767     -3.12938420138929
  C   3.29283380352533      8.81839723357231     -1.64480527845451
  H   3.92313840190364      8.29197730076420     -2.35697271426857
  C   3.50318200142828      8.66485794878152     -0.27258305049669
  H   4.27234067878272      8.00736087395235      0.12461977743630
  H   5.41114051492540      9.56803465960554      3.02155708134284
