73
Coordinates from ORCA-job AVIVIL-oxo_1_5_tpss_d4_lanl2dz_631gpol_Fe2.opt
  Fe  3.12297331751360      9.07112000637434      2.86930669840054
  H   4.06259675545716      7.80424591006249      2.62065979807544
  P   2.77694204478960      8.73154991153118      5.37198202800447
  O   1.43453846255635      8.03534189737887      5.97431766704582
  C   1.23781505208675      7.89544763378657      7.43185276470770
  H   1.19689789033773      8.90217361571423      7.86031880371885
  H   2.10734257863620      7.36454668705468      7.83612125221976
  C   -0.05419489980069      7.12643017043990      7.64359626231828
  H   -0.90296615723467      7.66089432989596      7.19892015488445
  H   -0.24283723111956      7.01410343105323      8.71929634201963
  H   0.00646913504418      6.12535140976489      7.19891657765081
  O   2.73813755043316     10.13712925068029      6.20922106606316
  C   3.94760138808081     10.97201615853871      6.33372422666350
  H   4.09940944976550     11.09007199301124      7.41191385858975
  H   4.80119277885288     10.43518119885093      5.90676979840748
  C   3.72602650608128     12.30092439045759      5.63131362956211
  H   2.82739202463226     12.80175400070265      6.01432263430388
  H   3.63650781903596     12.14558755787302      4.55003004913447
  H   4.58831101573905     12.95618812871638      5.81355342955317
  O   4.01974687706592      7.95659676305095      6.06917049139478
  C   5.06842547607573      7.29991796774240      5.26038047442440
  H   5.56647785374007      8.07705440180516      4.67003782373863
  H   4.58058188715666      6.58988676294141      4.58463539012593
  C   6.00939893460710      6.61697465249436      6.23598595827252
  H   6.45306463827300      7.34634122918970      6.92439377997715
  H   6.81914314353554      6.12775689754485      5.67869263918121
  H   5.48015940234214      5.85548379135912      6.82221745961030
  P   1.81552876470110      7.10451858390547      2.54592354749439
  O   2.30539590805437      6.07323671870437      3.70603356686016
  C   1.47386290914447      5.05806036451605      4.35675920927667
  H   0.56536645874700      5.54389531179234      4.72632244658864
  H   1.19755138032756      4.29885861771765      3.61479711780815
  C   2.30305294759540      4.47205364363280      5.48694740887494
  H   3.20474985951680      3.98517379062327      5.09648273166825
  H   1.71266140088443      3.72345732995826      6.03152932220348
  H   2.60321067427591      5.26194971650679      6.18549781163900
  O   2.09577123203052      6.41201654846906      1.11672923651344
  C   1.39804986379192      5.20758533802556      0.64397827565257
  H   1.81918379139687      4.34988820567171      1.18313290655130
  H   0.33345957863765      5.30745235534245      0.88202219968939
  C   1.64219875948765      5.10753528174654     -0.85188711964476
  H   1.23241306419517      5.98458266862744     -1.36763274888727
  H   1.15249630965270      4.20823254969488     -1.24750242318488
  H   2.71599578921858      5.04096367914844     -1.06457489907533
  O   0.18251187109616      7.02844175787704      2.59714082437903
  C   -0.61795664479491      8.01386990780271      3.33006699230894
  H   -0.80503410763935      8.85280950615458      2.64906072401196
  H   -0.05337963616763      8.36572141785747      4.20074967842727
  C   -1.91362750290797      7.33909189508142      3.74830874577098
  H   -2.44406287640642      6.94132896072638      2.87473925730339
  H   -2.56442171542392      8.06999957254992      4.24650963980271
  H   -1.71938416129781      6.51628589129337      4.44680875671587
  O   4.40701729377837     10.03165002117139      3.33949337515061
  N   1.57746673374895     10.47586324174809      2.55723605682051
  C   1.19588420478997     10.73137091597405      1.27459983590794
  C   0.14286237428191     11.61688502920869      0.99990098559838
  H   -0.15706150281134     11.81172875174837     -0.02557663658182
  C   -0.51005427602266     12.25985140801107      2.05419577014502
  H   -1.32609101109124     12.95005266912137      1.85187543006504
  C   -0.08564917012156     12.01635108488123      3.36503150455548
  H   -0.54820676824387     12.51154856451088      4.21471276558321
  C   0.96417088246164     11.12014706995416      3.57138672528421
  H   1.34212690279664     10.90923730387641      4.56902962800407
  N   2.98305707915072      9.26493823816694      0.69818324696838
  C   1.97752264215800     10.03968329414187      0.22738127517031
  C   1.74153470923077     10.16077668199992     -1.14995465995786
  H   0.93111087994173     10.77778092285150     -1.52800397461461
  C   2.57581988576948      9.47770837432668     -2.04047594845913
  H   2.41296355748080      9.56356774932296     -3.11259444575540
  C   3.62087641855403      8.69332728728150     -1.53921587068818
  H   4.29406099286111      8.15662206951043     -2.20264090518277
  C   3.78666504357898      8.61067399077068     -0.15410440233238
  H   4.56607551590710      8.00865556997871      0.30634597752169
