74
Coordinates from ORCA-job AVIVIL-OH_1_6_tpss_d4_lanl2dz_631gpol_Fe2.opt
  Fe  3.46802908846156      9.28098565749552      2.76902066715566
  H   4.28136857499618      7.77101924397262      2.56045826571016
  P   3.04494455620695      8.86231439698193      5.28270710169852
  O   1.57716641384345      8.28755322696307      5.65635847799203
  C   1.17891719401331      8.09760865645356      7.06668752130314
  H   1.17499020445608      9.08260207946935      7.54498585235250
  H   1.93620844748732      7.46669941198684      7.54580616632758
  C   -0.19289682302021      7.44836050905253      7.07067556777315
  H   -0.93034536047692      8.09099275410400      6.57422438502258
  H   -0.51804051790777      7.28725111958604      8.10684914558096
  H   -0.16821017870873      6.47837208299033      6.56021526556421
  O   3.01645031655902     10.24258636032986      6.16891975921816
  C   4.28021905221111     10.98253044477487      6.31959500380301
  H   4.86228843311696     10.47764863801772      7.09902120316666
  H   4.82602236149762     10.93560877367493      5.36641426023831
  C   3.92964158621594     12.41046642658277      6.70155235308689
  H   3.33670860387735     12.43238778410337      7.62394787471590
  H   3.35616243150193     12.89859300806657      5.90274995937713
  H   4.85049834547971     12.98478867142191      6.86681679390163
  O   4.12265339898927      7.96441159178259      6.09640938368331
  C   5.16977144403977      7.21253059941299      5.36555630189392
  H   5.81935974340041      7.94313392159722      4.86967490435432
  H   4.67932025655126      6.59661029690574      4.60586742085126
  C   5.91863464675585      6.39092325692766      6.39850158570055
  H   6.36217295171573      7.03747580483789      7.16531201415066
  H   6.72521262746766      5.83377567902472      5.90389765885007
  H   5.24811081130981      5.67329584260014      6.88652822633079
  P   1.76715703727075      7.15692249550581      2.65391051000923
  O   2.45996353238116      6.03645645422299      3.62147662771057
  C   1.76597355989047      4.93539557879802      4.28862231588006
  H   0.75523686277427      5.26534119713479      4.54720577570595
  H   1.69653221976366      4.10070217848211      3.57912175400834
  C   2.57834730272696      4.55740350573424      5.51627855150509
  H   3.58768965052627      4.23472405763423      5.23325240685844
  H   2.08711383208838      3.72978756753455      6.04525242410601
  H   2.66010313383161      5.41185533854972      6.19827855288034
  O   1.89006229048473      6.57793593915618      1.13121091902711
  C   1.42050640231231      5.24354134951736      0.75761750657305
  H   2.13831299091621      4.51370450890699      1.15309591230283
  H   0.43779888500041      5.07484889292312      1.21572594115302
  C   1.34945515667918      5.19101129951514     -0.76010542520550
  H   0.64051859397772      5.93810208603618     -1.13810800377112
  H   1.01640104938747      4.19661088774785     -1.08501137678074
  H   2.33559530367076      5.38814728015965     -1.19778169285103
  O   0.17261456268298      6.86918931732500      3.00951443922713
  C   -0.74498472847543      7.99465000735879      3.10373088778971
  H   -0.76451103395206      8.52938543920904      2.14343703493632
  H   -0.38448831405422      8.67344948811503      3.88617131848940
  C   -2.11821702607863      7.43473576792324      3.43929601819802
  H   -2.45223953082444      6.73923242921471      2.65990147181362
  H   -2.84796698829750      8.25212317536394      3.51401767237952
  H   -2.09331989809219      6.90134427010291      4.39710782158701
  O   4.72452553208729     10.58362470241663      3.05967453779797
  N   1.62691126198641     10.49556192885813      2.54418745492601
  C   1.12996415553594     10.60380484716276      1.28251594461682
  C   -0.01389270352894     11.37353775890474      1.01985820823138
  H   -0.39955094387955     11.46281056575277      0.00827435607801
  C   -0.64705087932090     12.04030311338223      2.07226201363654
  H   -1.53445303176903     12.64026411721938      1.88268349482284
  C   -0.11536364070105     11.93825631741079      3.36287335368918
  H   -0.56837134216891     12.45300102998312      4.20621155475996
  C   1.02887003071674     11.15949091385681      3.55256032657548
  H   1.48939197524397     11.05459797351564      4.53310335145605
  N   3.02512161609428      9.28015096360028      0.66864266374211
  C   1.88243380228887      9.87084088034824      0.23979117669613
  C   1.47888064367008      9.76893258608092     -1.09871410577680
  H   0.55394977676710     10.22624629248695     -1.43867871937247
  C   2.28469678865674      9.06427421237105     -1.99869784643558
  H   1.98841527205032      8.97893488670054     -3.04190719796646
  C   3.46843036957147      8.47391532318427     -1.54400468389425
  H   4.12179767559978      7.92356274253580     -2.21579822341003
  C   3.79752913705247      8.59614634406188     -0.19187750433723
  H   4.68145503078414      8.13501816819648      0.24213107686959
  H   4.52923601663113     11.53675758068129      2.95884628395898
