73
Coordinates from ORCA-job AVIVIL-oxo_1_3_tpss_d4_lanl2dz_631gpol_Fe2.opt
  Fe  3.23769363918420      8.74126383065156      2.96398586075347
  H   3.99199033728587      7.53063057604902      3.55618209251950
  P   3.05665678357477      9.09193274135146      5.11764852017641
  O   2.26519975418127      7.96024555265687      5.97829645630878
  C   2.89210555956293      6.65504230083291      6.20238999574034
  H   3.80052584796178      6.81643109917576      6.79432837584876
  H   3.16714456652277      6.23081236913687      5.22738154511461
  C   1.88270021833258      5.78313268292990      6.92921694609322
  H   1.60040240383312      6.23372848919585      7.88857338042881
  H   2.32537493887015      4.79829792288597      7.12915890195560
  H   0.98111585395467      5.64914419752237      6.32091938489624
  O   2.17608384616464     10.39564013739481      5.51597567875662
  C   2.03747573357369     10.80608599496624      6.92842559952901
  H   1.66067990261765      9.94606937561011      7.49262120058377
  H   3.03569155143782     11.07154676094967      7.29262317825861
  C   1.07860294219909     11.98225749201198      6.96246130120286
  H   0.09352559988761     11.69332713508727      6.57425626597631
  H   1.46582979587340     12.81805780955729      6.36693365210688
  H   0.95423147865707     12.32429475968293      7.99818662683442
  O   4.41626222168952      9.20820216433730      5.97200898058499
  C   5.77797060913245      9.40823651856807      5.45110223921475
  H   5.84448255358746     10.42862749572166      5.06225238886695
  H   5.92961338352016      8.70517589427160      4.62673377814359
  C   6.72707450967490      9.16609684034666      6.61235772716656
  H   6.52902466423038      9.86500014451763      7.43408792410789
  H   7.76017822478055      9.31508357533562      6.27173019833788
  H   6.63073826120195      8.14063005011018      6.99035881980485
  P   1.40884911682877      7.20266831324625      2.90082784007173
  O   1.96400003594774      5.68622924457930      2.96504407100097
  C   1.10919724124759      4.48947984914592      2.98918918552628
  H   0.25947163647855      4.68167884128074      3.65310824092537
  H   0.74730085313515      4.31923446999288      1.96749793519321
  C   1.96465388547006      3.33322688536557      3.47831738781384
  H   2.83325939009229      3.19169755990363      2.82420974126378
  H   1.37191237728398      2.40919936294632      3.47568499038148
  H   2.31738626639922      3.51785903636666      4.49980358944543
  O   0.64900991042875      7.41529829975501      1.47408952676070
  C   -0.63692552827823      6.82073847867647      1.10414649991449
  H   -0.41996759911528      5.93859890802474      0.48966428610097
  H   -1.16135430525082      6.50632839411419      2.01444446226322
  C   -1.42501316014300      7.86376331930267      0.32663923104912
  H   -1.61994301964835      8.74635080643344      0.94869731237435
  H   -2.38665938456766      7.44285261281808      0.00525904407578
  H   -0.86890991869032      8.18013503909023     -0.56409975408807
  O   0.18545285318053      7.10493155129808      3.98006863285264
  C   -0.49726143965353      8.33661977729403      4.38257191364235
  H   -1.18939931859928      8.62078048312958      3.57796587737480
  H   0.25025522016244      9.12943766877834      4.50921436611007
  C   -1.22554220662520      8.05944692486886      5.68530695451931
  H   -1.93716112771202      7.23337105785458      5.56517054999325
  H   -1.78382500185604      8.95400292335040      5.99220086914891
  H   -0.50735512948321      7.80327366074436      6.47109369981374
  O   4.54164251746764      9.75927500720033      2.93693916398534
  N   2.02858705859903     10.07265326853954      1.97269378128159
  C   2.06564505963455      9.95391207222461      0.61649362451375
  C   1.35656267530778     10.83908068128253     -0.20678016875122
  H   1.39478780480898     10.73771715807220     -1.28765500950645
  C   0.60430929192593     11.86176413949663      0.37550542705078
  H   0.04916626210558     12.55655068772703     -0.25089298586200
  C   0.58866145766313     11.98428572554299      1.76894686451871
  H   0.03081699839812     12.77623839214809      2.26208353141204
  C   1.32034677415929     11.07151954895417      2.53250774177423
  H   1.36777793690429     11.12835218463161      3.61640101466006
  N   3.49720534827630      8.09801768152463      1.07774351678653
  C   2.89535397406654      8.84492337211525      0.11196103207421
  C   3.07405560994038      8.54180508691681     -1.24396065316476
  H   2.59765244478402      9.14450680690487     -2.01182078165792
  C   3.87910955992208      7.45790259276234     -1.60239990581107
  H   4.02986727043175      7.21378417206033     -2.65156935861909
  C   4.48788485305237      6.69682698944870     -0.59806137172415
  H   5.12356341847690      5.84817975056495     -0.83612740845058
  C   4.27159173106206      7.05078085779790      0.73462022628252
  H   4.71050512448794      6.50522644486382      1.56345824636684
