78
Coordinates from ORCA-job AVIVIL-CH3OH_1_1_tpss_d4_lanl2dz_631gpol_Fe2.opt
  Fe  2.84670400882328      8.81250483426225      2.74136525948173
  H   4.00687094015400      7.82184638353333      2.93025834221914
  P   3.00795162926873      9.00278819014600      4.87895991389769
  O   1.73113072262722      9.51429953370998      5.76461295536841
  C   1.47597916042045      9.17635347373332      7.17226401441783
  H   1.01754746901098     10.07640524537063      7.59540113050516
  H   2.42715592017086      8.98157516520917      7.67592487155465
  C   0.55173454864897      7.97070040362060      7.25346364014212
  H   -0.41045841745336      8.18631558959648      6.77275180761274
  H   0.36151673780734      7.71744138825310      8.30528335142962
  H   1.01582169780082      7.10999813859659      6.75936439735539
  O   4.20636305521404     10.14130634727583      5.12175395594765
  C   4.76664053876550     10.48537371815290      6.43198307867750
  H   4.54514091686475      9.66931251382149      7.12963346350703
  H   5.85108014043274     10.52952630368057      6.28305360214046
  C   4.20893317686301     11.82138511944095      6.90275492317745
  H   3.12157698184529     11.77002409286151      7.03326895721231
  H   4.43655412727714     12.61091214131425      6.17593798562662
  H   4.66382247117198     12.09623993398987      7.86393558322558
  O   3.48637754918202      7.80546943739491      5.87389331335973
  C   4.60954320733724      6.93754124714157      5.53446563721182
  H   5.50629851831305      7.55814840728552      5.40250244513867
  H   4.37854245983202      6.43862905657479      4.58831750459616
  C   4.76994112497576      5.95189870993527      6.68014039593261
  H   4.98230983794270      6.47261299565084      7.62221291044732
  H   5.60223578283924      5.26848784331254      6.46673655846926
  H   3.85457731097405      5.36091648525226      6.80645715812876
  P   1.71179459304728      7.00321486360347      2.78686726611442
  O   1.90203232461734      6.13241973451626      4.15360269138560
  C   1.41310780516862      4.75626503166101      4.26659698445383
  H   1.05619458976724      4.66993685016391      5.29859740903981
  H   0.55642618056951      4.61883791795955      3.59516732851646
  C   2.53472921582788      3.76825648425261      3.97679276171470
  H   2.90067546854378      3.88787781816144      2.95116683509758
  H   2.16698835561577      2.74106593425198      4.10470695334469
  H   3.37138604568521      3.92299889719241      4.66863508845799
  O   2.08261142060028      5.98256283829584      1.57653572352759
  C   1.12547365310152      5.23478986596058      0.75896698663984
  H   1.68496195566675      4.35117138527466      0.43496772362535
  H   0.27977403436017      4.91967109371149      1.37889803858144
  C   0.65736129374141      6.06893676234637     -0.42493151554216
  H   0.09038088499868      6.94002758555960     -0.07780146146899
  H   0.00487153246761      5.46295735439052     -1.06842646946411
  H   1.51319356071451      6.40766932166549     -1.02005569229403
  O   0.08207458492997      7.04265214668767      2.55788121531955
  C   -0.73637853511704      7.79771279182879      3.50205954533100
  H   -1.28515722614353      8.53454609476124      2.90507984873403
  H   -0.08421176760489      8.33231236242026      4.20587833112890
  C   -1.68083038027273      6.85098748071040      4.22822968180241
  H   -2.27692788223824      6.27564538610097      3.50935453429356
  H   -2.36869556980228      7.42449495313682      4.86466612387008
  H   -1.12440957675636      6.15336409449407      4.86528885895520
  O   4.32656669981320     10.24874835159655      2.50544138559069
  N   1.37699770617155     10.03100073320631      2.25560733835852
  C   1.13546367307286     10.12860643299537      0.90751268430724
  C   0.09008243876176     10.90642131794187      0.39367890283990
  H   -0.08480663254371     10.94411683172726     -0.67829061562497
  C   -0.71866495681736     11.63683449231103      1.26622645171914
  H   -1.53242975038415     12.24847721994905      0.88382203613677
  C   -0.44991411745917     11.56697013882457      2.63895071040685
  H   -1.04076540945006     12.12734333465170      3.35947536540062
  C   0.59263618838229     10.75782940026211      3.09027771031836
  H   0.81657170378999     10.65722155488172      4.14822134822575
  N   2.98412191158847      8.65241796285342      0.81497268915095
  C   2.09071895244153      9.37988441684639      0.08361542794393
  C   2.14993942847665      9.41274772437276     -1.31641144001518
  H   1.43505468696961     10.00333397866757     -1.88289374518715
  C   3.14875858216294      8.69150929399510     -1.97416951704654
  H   3.21431420904855      8.71088792926258     -3.05965328327315
  C   4.06163884376743      7.94917264264775     -1.21393197169257
  H   4.85563584301287      7.37608842324498     -1.68564580970215
  C   3.94372338163693      7.94923506129288      0.17627966256693
  H   4.61048995387107      7.38932043212911      0.82179090996192
  C   3.94411716646519     11.60234104275199      2.16407842630634
  H   3.22616432369624     12.00430195458945      2.88986566653185
  H   4.84454964301943     12.22698699725032      2.12904329645960
  H   3.49108096058785     11.56371428894761      1.17100532251487
  H   4.68881639131847     10.28172029457212      3.42918909985150
