56
Coordinates from ORCA-job AYIPOQ-OH_1_1_tpss_d4_lanl2dz_631gpol_Co2.opt
  Br  5.59073860005968      2.77351715319938      5.54870415916389
  Co  6.31065364224162      4.59722716064440      4.07078724303516
  N   6.95663145299778      5.97493164234820      2.90559746729832
  N   8.13989653533355      4.61714838559178      4.73010612584102
  N   8.99235628520479      6.73234022489111      1.94539882995046
  H   9.89976281373482      7.05954267734421      2.26838180783653
  N   10.30184084401071      5.05960356817802      3.81356738384281
  H   10.72363563711042      5.15675754529820      2.89175641402913
  C   6.14321354112701      6.80763611524502      2.02413733557038
  H   5.26077732267386      7.12442545086025      2.59188667185596
  H   5.79091006000795      6.18176514751669      1.19135917238091
  C   6.93573703846381      8.02147743486455      1.51480546933988
  H   6.36194298488870      8.54472567848624      0.74041159262058
  H   7.10851791693891      8.72430588497662      2.34186273280365
  C   8.28578192599026      7.55938615875210      0.94611792468173
  H   8.13880152835750      6.95639069498464      0.04014710933384
  H   8.92935756621729      8.40679810465449      0.69111602847000
  C   8.25934381484099      6.00383269815293      2.83912736368296
  C   8.93866846984118      5.14850797907080      3.84050178522182
  C   8.71343904205854      3.76349978580562      5.78143119301132
  H   8.61220913037497      2.71785736159688      5.46132321599782
  H   8.09370575035055      3.87691747654755      6.67611741623413
  C   10.17885790057026      4.13011977983398      6.05816932906115
  H   10.23646570098425      5.11990461933857      6.53269653201114
  H   10.61650832719331      3.40140078175085      6.75069405533777
  C   10.97893339272627      4.14388621647135      4.75206316355195
  H   11.99911956336791      4.51251210332094      4.90752218776825
  H   11.03290896580173      3.13453351568776      4.31817087269789
  O   6.87074794249147      3.42956103278758      2.73245780653371
  N   5.55725101215625      5.91926430980946      5.30852266840047
  N   4.51056281384437      4.59425611158195      3.39268956363837
  N   3.50053929266068      6.96566571553053      5.89731864952120
  H   2.68182220419059      7.35279899297127      5.43484770584667
  N   2.29767188318133      5.28851531297667      3.93731943192158
  H   1.76229772887185      5.48194056955707      4.78195974856945
  C   6.30533814984404      6.70020381529922      6.29488789430082
  H   7.30562284649049      6.86828794498501      5.87995635213440
  H   6.42249459450857      6.08200040516061      7.19710680117418
  C   5.60422917874316      8.02811502410514      6.61845780447338
  H   6.10271725623072      8.52139570116453      7.46160390189783
  H   5.66551836976877      8.69927636946673      5.74992543169375
  C   4.12971348063572      7.77112876410776      6.96361675992311
  H   4.04489810367899      7.22124046050006      7.91046587699129
  H   3.56787605380123      8.70534078391030      7.06051864477918
  C   4.27706614783236      6.12345716663507      5.15069292451190
  C   3.65556993247612      5.27886029467071      4.10251885104448
  C   4.03256672294752      3.64852263836446      2.37902390338152
  H   3.97978157140204      2.66091244193286      2.85972544630897
  H   4.80828389295690      3.58700195212568      1.60986047747583
  C   2.66539901260289      4.08835434691211      1.83655476491964
  H   2.77437062160098      5.01022149913373      1.24780002337939
  H   2.25986614914587      3.31531903993497      1.17304765646549
  C   1.68626200529528      4.33073923101989      2.99171119744583
  H   0.74464461315364      4.76424045541408      2.63572742673860
  H   1.46301477864685      3.38744050011730      3.51093933196577
  H   6.80686788737234      2.54760777441186      3.15986237193254
