55
Coordinates from ORCA-job AYIPOQ-oxo_1_6_tpss_d4_lanl2dz_631gpol_Co2.opt
  Br  5.49145459390421      2.76114876685385      5.86649743757866
  Co  6.27834356048951      4.25188084268975      3.95763625577006
  N   7.10220393591989      5.87465913907536      2.78007655306715
  N   8.27667030161740      4.46190932476437      4.70474161743982
  N   9.10762405923703      7.10597210003553      2.42693802714839
  H   9.92337585139310      7.41334517925361      2.95101290242103
  N   10.41692136098801      5.13310523752453      3.89025456011202
  H   10.84356982431680      5.43210163943359      3.01551642132910
  C   6.34100621968862      6.78988336711736      1.92747345771198
  H   5.31805058646735      6.82053456526481      2.31811795900126
  H   6.28605552938864      6.35314569480888      0.91902144820997
  C   6.96708757721377      8.19179924416826      1.88147998277402
  H   6.45351715572228      8.81271428105218      1.13747999418166
  H   6.85852101466082      8.67791181818672      2.86156795155798
  C   8.45818338731959      8.08386547734441      1.53038957919539
  H   8.58889684831635      7.75060880466721      0.49192781535801
  H   8.97201623700593      9.04363337117143      1.64514563165054
  C   8.36118963089962      6.11123787356638      2.99964823664245
  C   9.05024154825769      5.16214865353969      3.92406517405942
  C   8.89569913582427      3.44824114891897      5.57727109623332
  H   8.84463752253932      2.48206959665584      5.05470172899236
  H   8.26673338957756      3.36029687948861      6.46900602684118
  C   10.34022195498209      3.81871266313809      5.94309296462846
  H   10.34189379731008      4.69821603821759      6.60202026124202
  H   10.81119788135763      2.99284212631127      6.48936353948051
  C   11.15014230344096      4.12410337041774      4.67927138498785
  H   12.13675412685864      4.53513245578615      4.92243060320221
  H   11.29086940520710      3.21431345907394      4.07748197255182
  O   6.68072521259233      2.94364266108699      2.90438318621848
  N   5.51543642927121      5.93721233699922      5.16512031661506
  N   4.34287987403285      4.52826450683479      3.22739278399090
  N   3.49967208961124      7.16231432400157      5.53128993094060
  H   2.71426108402309      7.50937761092835      4.98566410165697
  N   2.21971376673374      5.13822937272110      4.10214816706987
  H   1.79420331495245      5.48012145981583      4.96161531549733
  C   6.26872419002211      6.83389812137706      6.04206148522967
  H   7.29421486887585      6.87698223679952      5.65680404421543
  H   6.32192363493475      6.36310862616292      7.03500099802617
  C   5.63973503378003      8.23242949220051      6.13059211601084
  H   6.14481446316550      8.83183801311623      6.89779357452995
  H   5.75258627712375      8.75141683947357      5.16759971554917
  C   4.14584913319155      8.10710801347145      6.46687730426821
  H   4.01109162851789      7.73101626659649      7.48988659114686
  H   3.62977793463317      9.06929318826251      6.38894784131297
  C   4.26104414347869      6.18209984185505      4.94359673622020
  C   3.57370342647043      5.22197911386996      4.02673028354007
  C   3.72678244448931      3.48609271904302      2.38900804025844
  H   3.79482828062611      2.53664106892161      2.94108796354558
  H   4.34198637096770      3.38093469286673      1.48987104744299
  C   2.27131471498401      3.82989195383494      2.04115929019813
  H   2.24330554104812      4.70369961593706      1.37526066953658
  H   1.80229057826548      2.99218288552134      1.51161422642886
  C   1.47960371528615      4.13109086496426      3.31850135483679
  H   0.48822629782395      4.54009332471272      3.09142072252779
  H   1.35122681119371      3.22250773009861      3.92364160981716
