54
Coordinates from ORCA-job AYIPOQ_1_4_tpss_d4_lanl2dz_631gpol_Co2.opt
  Br  6.00338560907016      2.44087547250205      4.55336604871586
  Co  6.34020773342041      4.87712931056457      4.19418932898439
  N   7.17272529235842      5.83477512939938      2.53841508287741
  N   8.35448527765819      4.90119511618729      4.78204208448059
  N   9.28603740360284      6.65243219907142      1.81133523837265
  H   10.19877455778135      6.90630562158037      2.18118251957252
  N   10.44697710118272      4.89529272629987      3.63381523415494
  H   10.80527817243556      4.84220909196320      2.68241167080225
  C   6.48885310820291      6.61310297716916      1.49555936440833
  H   5.49399064365650      6.85928924802652      1.88306493828383
  H   6.34801903659168      5.96419815518945      0.61789594204178
  C   7.27387742291419      7.87426022423795      1.10799159238623
  H   6.79468831056704      8.37618655968932      0.25891203271466
  H   7.28594092889547      8.57585361767046      1.95386134564152
  C   8.71404357620932      7.49248095203382      0.73857093678151
  H   8.73944334675256      6.92876135171219     -0.20389459919816
  H   9.35172252530582      8.37499780336264      0.62430703857375
  C   8.47040995643879      5.94375320880240      2.64263600686400
  C   9.11804234002025      5.18555265595460      3.76371001629418
  C   8.93053658173631      4.11755267871108      5.89127999183412
  H   8.66315923755799      3.06468036976654      5.72645323483998
  H   8.42606511299475      4.43406207891218      6.81161724681879
  C   10.44920005022144      4.31406180336249      6.00397465193755
  H   10.67107752145456      5.33911101737757      6.33251961040591
  H   10.86508034306069      3.62674893568733      6.75017889646615
  C   11.11696669421423      4.05854664779293      4.64869002728755
  H   12.17818943101475      4.33221778782386      4.66547094467588
  H   11.03450891573460      2.99869315651434      4.36746953526846
  N   5.34193860573728      6.00296389892930      5.57632137920186
  N   4.36392919609753      4.96309372243365      3.34798929515546
  N   3.18376219978134      6.79553007574608      6.18143206203793
  H   2.28857999625258      7.03674640652454      5.76386337506004
  N   2.14196548828609      5.08871114517164      4.23679085230329
  H   1.70689596986049      5.02258355562250      5.15568899708705
  C   5.95771310268986      6.76918846051597      6.66972996479989
  H   6.97300317407227      7.03546362298283      6.35287387445382
  H   6.05161120212203      6.10827371532956      7.54471177108833
  C   5.14005394954556      8.02030552357954      7.02350315059337
  H   5.56237048881188      8.51307766388778      7.90742987411263
  H   5.17623584797631      8.73254113285607      6.18745998119373
  C   3.68184123479476      7.62542682065906      7.29618377083267
  H   3.60133173943948      7.05178886631050      8.22962931376629
  H   3.03484526176837      8.50464763542535      7.38058028565371
  C   4.04992988274890      6.09629148798791      5.39590166029764
  C   3.49570560757744      5.32207308763478      4.24809121276398
  C   3.89617695527054      4.13938316419579      2.22200513422282
  H   4.10384554840255      3.09072146904031      2.48003227085543
  H   4.51471971003566      4.38653542256965      1.35078617735199
  C   2.40755465806410      4.36493555777651      1.91975488068953
  H   2.25500291207350      5.37599835960235      1.51615798022595
  H   2.06055304244405      3.64818859129391      1.16570564160604
  C   1.58255399765094      4.19792464772260      3.19985665416513
  H   0.53495300295478      4.47901344498566      3.04116456771291
  H   1.61584099448741      3.15476662385052      3.54672991048152
