60
Coordinates from ORCA-job AYIPOQ-CH3OH_1_2_tpss_d4_lanl2dz_631gpol_Co2.opt
  Br  5.59023630161431      2.59679379039361      5.37137133043076
  Co  6.29878975243768      4.63054795817560      4.04024675347752
  N   7.01356381981585      5.93865205844124      2.78304023389233
  N   8.13579402093455      4.59024574905278      4.63890475538090
  N   9.06038010234079      7.00074349401550      2.12275276637220
  H   9.83256079154627      7.44421192479544      2.61755246468082
  N   10.31801691496545      5.42144336770094      4.09079960360486
  H   10.84351615049165      5.63123312156301      3.24394355942284
  C   6.22963340269627      6.76367943892840      1.85579929403500
  H   5.25227508374400      6.92774264204693      2.32148465732960
  H   6.05927088554628      6.18208337158202      0.93746400191336
  C   6.92549139682535      8.09491936244631      1.54019064634833
  H   6.38652864943878      8.62101496037552      0.74268550779829
  H   6.91897104566424      8.73682267308269      2.43280607354123
  C   8.37457440221758      7.82985234610095      1.10927191386330
  H   8.39764044976486      7.29352258335452      0.15079651421140
  H   8.94233603987385      8.75768073647147      0.98959737297025
  C   8.30290587565764      6.14391107947489      2.89022280876538
  C   8.95942345179251      5.31889366943376      3.92129622508706
  C   8.68059368416127      3.79623957655766      5.75666833156632
  H   8.77959187604747      2.75432652898067      5.42209009463012
  H   7.92450202082402      3.79121001420765      6.54706068965981
  C   10.01993830705137      4.35778075473276      6.25323042674218
  H   9.85814987619144      5.32162677436791      6.75654891410852
  H   10.46179848310993      3.67007638006554      6.98397618754292
  C   10.98376815421047      4.55576717223745      5.07980332247155
  H   11.90981650849901      5.04979893316677      5.39532397433366
  H   11.24450661897969      3.58656186634942      4.62678525178406
  O   6.73456071258805      2.93465916834243      2.44606502844578
  N   5.57420691639747      5.99485744218601      5.42645326741825
  N   4.46238151794006      4.71899165826232      3.43940956606665
  N   3.50126628484906      7.02003378737959      6.04510216737678
  H   2.71502181910460      7.44080056841040      5.55396298133191
  N   2.27984432797258      5.35180308788390      4.17560091324991
  H   1.81601909035726      5.52193759270533      5.06662316720876
  C   6.31676930646624      6.80615603216731      6.39309648910729
  H   7.31000766590514      6.99323335368927      5.96584746844345
  H   6.46380468228514      6.20253770344208      7.30156146669479
  C   5.60139514421687      8.12450114233684      6.72510399903078
  H   6.10630696230776      8.63459666408278      7.55486373053408
  H   5.62965933508660      8.79164278635198      5.85130410734990
  C   4.14013714350290      7.83372249021231      7.09926657263582
  H   4.09031033000484      7.27688168136897      8.04480594384003
  H   3.55949727475685      8.75387013879939      7.21795343911365
  C   4.29409392256702      6.18647996059026      5.28875478952744
  C   3.64801243845670      5.35620253540115      4.24217203414760
  C   3.89700282521788      3.83403813379389      2.40777318428329
  H   3.90565063590613      2.81331099089568      2.81690550350063
  H   4.57850697141234      3.84675582255602      1.55220701866428
  C   2.47807517700203      4.26244274219423      2.00844257392826
  H   2.51225613364894      5.21750787650563      1.46536442495507
  H   2.03766597630017      3.51305851451531      1.33993969951944
  C   1.60471615220928      4.41681672574014      3.25678960311115
  H   0.62116499974692      4.83323100655019      3.01067185171583
  H   1.45977302928793      3.44431697125003      3.74999941642480
  C   8.07064776467565      2.61327447703840      2.02844011617986
  H   8.39069210497319      3.41830366373228      1.35915801111427
  H   8.76041915556580      2.55497775414697      2.88299109872418
  H   8.08843881256935      1.66235380143219      1.47896396116611
  H   6.45561132027618      2.28401139793495      3.14005272922507
