54
Coordinates from ORCA-job AYIPOQ_1_6_tpss_d4_lanl2dz_631gpol_Co2.opt
  Br  6.22433725205624      2.32739682777156      3.84772326457272
  Co  6.38933396011302      4.77873170029922      4.04493440773364
  N   7.10027081247815      5.84519978407844      2.56487643652256
  N   8.22638418786410      4.81655120407279      4.74987347804802
  N   9.24330923922887      6.67379891200522      1.78232675093230
  H   10.06408723318381      7.12936951925607      2.17702976590332
  N   10.45343851292163      5.28000494394154      3.90658513477517
  H   10.94715863145362      5.27009290488212      3.01342080074241
  C   6.44138928719097      6.43331714376789      1.40499613462156
  H   5.40765250389802      6.66095330897568      1.69121864092686
  H   6.40275574369169      5.69111008292790      0.58618470945674
  C   7.17389948423198      7.68902516622843      0.90607944751654
  H   6.69224851445372      8.07220380081684     -0.00268822494655
  H   7.13614551222896      8.47470171430710      1.67406620968623
  C   8.63322354687928      7.32116343288936      0.60901161488621
  H   8.67858271919929      6.62735960447508     -0.24444948842635
  H   9.23436776287140      8.20112760083635      0.35829780930591
  C   8.46773547204891      5.96935226394183      2.68460956923456
  C   9.07461290350502      5.32782629668870      3.79347002096645
  C   8.79252696404753      4.05185971573823      5.85329059674074
  H   8.80976346751551      2.98509787143850      5.55960511028811
  H   8.10743803686033      4.12664484507964      6.70709636546654
  C   10.20241580921570      4.53282888276142      6.22245274846654
  H   10.16006483701694      5.55951974760705      6.61379315947982
  H   10.63512905244692      3.89080307669605      6.99955261307481
  C   11.08866265551439      4.49167169834849      4.97603264119630
  H   12.07907155069422      4.92135630774473      5.16853269984162
  H   11.22517446655190      3.44801627189923      4.64657483278018
  N   5.45113330393090      5.76402696417720      5.57624192405795
  N   4.32322522010326      4.89711916205813      3.32707772370424
  N   3.38962177664068      6.73915843591398      6.23046738026618
  H   2.48907069609510      7.02616922525976      5.85500960058727
  N   2.15013437746570      5.15371921498025      4.29634167878348
  H   1.72696463025173      5.08370869372572      5.22020229255064
  C   6.15682657376078      6.47873297629875      6.65214731279649
  H   7.18061837225131      6.65226335710624      6.30258004313130
  H   6.21365667830549      5.81467613401880      7.52780809944387
  C   5.45784881805766      7.79566877558306      7.01749710645229
  H   5.94289020358551      8.25293716545605      7.88806022898341
  H   5.53434686367996      8.49862744636831      6.17655718787659
  C   3.97899955045355      7.52976278385015      7.32957674536309
  H   3.87035332116485      6.97000889560641      8.26846764414540
  H   3.41001169220544      8.46086835983478      7.41838251072030
  C   4.16717251092697      5.97091632153278      5.42479878914446
  C   3.51689186570104      5.27667560489744      4.27210541119591
  C   3.75124848080873      4.18090076445922      2.17450878119386
  H   3.85405022165800      3.10411819703152      2.36928932698180
  H   4.37386282564768      4.40690391229748      1.30170957933405
  C   2.28772394716924      4.57455868826645      1.92780230947973
  H   2.23212688814079      5.62052444224950      1.59450159712649
  H   1.85432832092151      3.94914430471083      1.13821540449626
  C   1.47594141688449      4.40442426888253      3.21605261241811
  H   0.46177494499323      4.80609668735044      3.10792019902936
  H   1.40259637983358      3.34170458860821      3.48958126094409
