54
Coordinates from ORCA-job DAJRAH-OH_2_6_tpss_d4_lanl2dz_631gpol_Fe2.opt
  Fe  7.99979398310229     11.29268811902311     13.87564625640019
  O   9.47341260769499     12.35155006151317     13.82553563450235
  N   5.91600463568733     10.36551414460288     13.89446757419978
  C   5.40785602037006     10.33063074825421     15.29802290698694
  C   6.56067093576604     10.17599191833941     16.28638388154863
  N   7.60366949271540     11.22270438262077     16.04544534210830
  C   7.19305249790570     12.55676430084776     16.57192864999424
  N   9.13758625453362      9.51768043626691     14.62140668062372
  C   9.67400867371226      8.50982930395840     13.89317804972842
  C   10.55393916709349      7.57525605599867     14.43857007299749
  C   10.89477186445448      7.68132241358733     15.79284923685998
  C   10.34470907827497      8.72237575880758     16.54987945497378
  C   9.47886026124336      9.62841335465833     15.93167765705589
  C   8.90038620261926     10.81890105341225     16.66074412835185
  N   6.69998225554621     12.92254152791761     13.43086890704866
  C   7.14085003616017     14.20408586536038     13.46318173575101
  C   6.27936162140827     15.28232549448736     13.26438667241179
  C   4.92109046369259     15.02641427791072     13.03285776450836
  C   4.47073453446677     13.69974871399716     12.98842462724778
  C   5.39059340123804     12.66689711422454     13.17929110803669
  C   5.02965536714463     11.20545748556307     13.03720551589672
  N   7.82995962536515     10.23466720369345     12.04117161541638
  C   8.60253816642567     10.48519071815752     10.95860728158304
  C   8.53031135859601      9.69944943794465      9.80739770059607
  C   7.63053688036241      8.62533896164956      9.78228305840988
  C   6.82261124821300      8.37618216190678     10.90163106471895
  C   6.94580624692999      9.20020267404038     12.02165714698537
  C   6.12773937495475      9.02539718516769     13.28871963378217
  H   4.67663150018109      9.52025090346492     15.43458790361503
  H   4.88238079311540     11.27688001163146     15.47025929231029
  H   6.18732991592360     10.24192579461655     17.31938060931235
  H   7.03986724982836      9.19800896066610     16.16406838586881
  H   7.09913848237419     12.52420951043662     17.66705824363901
  H   6.23554689519441     12.84783226803087     16.13376671378490
  H   7.95298788636880     13.29147704689281     16.28927189606062
  H   9.38523155450384      8.46590695505709     12.84751294494522
  H   10.95868801147830      6.78371039909482     13.81335836223165
  H   11.57369691947588      6.96657784200001     16.25238463788124
  H   10.58503695512232      8.83493090882807     17.60478617179353
  H   8.77166433792150     10.60329902683793     17.73216150255341
  H   9.58201100117972     11.67496332040731     16.56614000093250
  H   8.20475846341678     14.32298713226934     13.65241030615210
  H   6.66614677328753     16.29751463750344     13.29501468915692
  H   4.22144638253955     15.84625074657962     12.88562876261454
  H   3.42432556978637     13.47030712796850     12.79947023900313
  H   3.97058507732073     11.02720077659628     13.27224192199726
  H   5.18754503609976     10.90895158667640     11.99139606504806
  H   9.27834873065879     11.33264154158288     11.04321682154784
  H   9.16101396681352      9.92931033983629      8.95272435455526
  H   7.54800051816164      7.99578157712153      8.89897358185412
  H   6.10330124459103      7.56016718038591     10.90175170315951
  H   5.17591565449392      8.51648058808132     13.07313644154663
  H   6.68220765044983      8.41270624613479     14.01276027699979
  H   10.43513117403548     12.18588669738643     13.77982881271047
