54
Coordinates from ORCA-job DAJRAH-OH_2_2_tpss_d4_lanl2dz_631gpol_Fe2.opt
  Fe  7.80970470881902     11.07979710555290     13.97393217222770
  O   9.31157214308509     12.05049459048502     13.80504863371194
  N   5.92842119635892     10.24807675280383     13.97591306087372
  C   5.41017889769580     10.19779506730097     15.38679517192012
  C   6.57845117204281     10.18944824075984     16.35989587740843
  N   7.55122606452950     11.28071561689103     15.98081797001837
  C   7.08507411324307     12.61597077046575     16.46046249543392
  N   8.98345320096399      9.57348191260917     14.61197450242247
  C   9.47807929737124      8.52924901712789     13.89954411856009
  C   10.42729245447524      7.64889688537653     14.41770477659521
  C   10.89547425076051      7.84124029550065     15.72256158331786
  C   10.39270969549539      8.91655458190815     16.46398230712934
  C   9.45162674410311      9.76612396179307     15.88071412033480
  C   8.89313713915484     10.97935713539624     16.57393942629447
  N   6.78756202960470     12.68512502137344     13.46727652429885
  C   7.32989043775710     13.92521295273313     13.43016791923440
  C   6.55707051224846     15.05582073091492     13.16146060545394
  C   5.18381131851721     14.90652260059532     12.93542239639625
  C   4.62897851556801     13.62007689254351     12.95723067412827
  C   5.46201492094330     12.52988626182700     13.21029843946118
  C   5.01409920579029     11.09681259860627     13.13230951481431
  N   7.76286360759538     10.29311094841208     12.18747923926294
  C   8.51561009414703     10.69885608046819     11.14095231619027
  C   8.48087322473263     10.02139431165408      9.91956617529345
  C   7.64606501478975      8.90591129915680      9.78227160077750
  C   6.85317097014719      8.50220152497004     10.86819770496200
  C   6.93301449444244      9.21466866577537     12.06330035976801
  C   6.13185208710854      8.92131216229147     13.31532349609726
  H   4.76117199781099      9.32433591860673     15.53376930656590
  H   4.80079710019164     11.09579613518751     15.53318427317913
  H   6.23105770426921     10.34112480148464     17.39166705026011
  H   7.11323543997784      9.23493190885640     16.31760362755647
  H   7.03688381193117     12.62173736291406     17.55807803329560
  H   6.09637329881313     12.83158522110961     16.04936360328234
  H   7.79339093856105     13.37428006378605     16.11767292159409
  H   9.10324955987684      8.40990159283230     12.88909167722209
  H   10.79019762995498      6.83085975884634     13.80106849498387
  H   11.63497120071853      7.17085765685790     16.15416700847824
  H   10.72857450663862      9.10261788582383     17.48152421650136
  H   8.81317819228804     10.83059448720560     17.66031666656204
  H   9.52815061461376     11.85347962926975     16.38317869191337
  H   8.39863288036443     13.96786887171458     13.62008006004474
  H   7.03050264217704     16.03383069222746     13.13917984655416
  H   4.55490900997109     15.77193444559544     12.73950583729181
  H   3.56941270932908     13.46206085094404     12.76882381803911
  H   3.97062144884162     10.95947427551371     13.44421115783288
  H   5.09336611914456     10.75604255306835     12.09216422166411
  H   9.13962098692474     11.56904647732862     11.32360097004618
  H   9.09768883505298     10.37021174281479      9.09555905133053
  H   7.59956495541211      8.36317856599327      8.84096274382358
  H   6.18062769493341      7.65143681190096     10.78483312124383
  H   5.17602370944213      8.42996400036850     13.08375068386908
  H   6.69395037311784      8.28014323464245     14.00709401157062
  H   10.12999912815233     11.50827106981396     13.84171572290713
