52
Coordinates from ORCA-job DAJRAH_2_5_tpss_d4_lanl2dz_631gpol_Fe2.opt
  Fe  7.86297353353676     11.03784546759616     13.84124542108816
  N   5.80810534864019     10.30912791158713     13.84803481849342
  C   5.32655454593151     10.23786040619782     15.26345479990822
  C   6.50293162622999     10.06787431136195     16.22624330392490
  N   7.50437961362923     11.16762344827579     16.04424869060087
  C   6.98688937308128     12.46642741148772     16.56400422978109
  N   9.39374731001146      9.81049226640827     14.62805699425735
  C   10.13658611127655      8.96164938585585     13.87165194907459
  C   11.06323406541887      8.07946539450189     14.42273633010127
  C   11.22729652112490      8.05726873324261     15.81395667179776
  C   10.46128646413656      8.92583302925465     16.60008852090435
  C   9.56373751324466      9.79638285268774     15.97775021576910
  C   8.77175629845064     10.82508905028937     16.75203444632927
  N   6.86659308659810     12.81803865795008     13.38505048098350
  C   7.40209275353152     14.06244521377869     13.44119075282087
  C   6.62908611233775     15.21837573642657     13.33445088371942
  C   5.24482321360754     15.08491155072126     13.16864253141920
  C   4.68614209135643     13.80139121767137     13.10158536520223
  C   5.52258363306645     12.68711602033373     13.20279031077198
  C   5.00704354760657     11.27173104628237     13.03331337122346
  N   7.70691949082611     10.01075396109539     11.96246424252782
  C   8.48408004539876     10.18360631378910     10.86560876218161
  C   8.32203216622757      9.42006399874395      9.70964177285684
  C   7.31217209732962      8.44862508715440      9.68368511272832
  C   6.49285743379718      8.28256450530092     10.80826287184259
  C   6.71685601548871      9.07788873578264     11.93440437829295
  C   5.88380846337731      8.97214773362645     13.19798364457440
  H   4.61165317488331      9.41241066186906     15.39003504756058
  H   4.78694488839936     11.16701774414196     15.47553199784515
  H   6.13861141462688     10.04744013268784     17.26551897870873
  H   7.02332459356154      9.12042799170446     16.03239430849098
  H   6.77730634856814     12.39986928388545     17.64166277621387
  H   6.07237729462780     12.74374291855928     16.03429916778342
  H   7.73791239004494     13.24292962406690     16.38957994319232
  H   9.96426103567462      9.00246865855519     12.80002869829433
  H   11.63812005029752      7.42333850840216     13.77477025170635
  H   11.93551597041887      7.37516371632703     16.27856037327303
  H   10.56198255815743      8.93466485519015     17.68316280311930
  H   8.57196884905984     10.48010039708879     17.77790162083903
  H   9.36418234189834     11.74783638581928     16.82909252329899
  H   8.48039543850355     14.11377574908630     13.57857449886600
  H   7.10257603292414     16.19541146702799     13.38306835843517
  H   4.60931965902497     15.96428132143869     13.09078651756056
  H   3.61501353878177     13.66720622691129     12.96661822094013
  H   3.93715608712990     11.20574190347349     13.27640081333733
  H   5.12075196126626     10.98793936699239     11.97788047539025
  H   9.24665469530256     10.95739539320550     10.93326002942708
  H   8.96646174124548      9.58972258509815      8.85112030637939
  H   7.15478066807375      7.83901325840030      8.79664494953235
  H   5.68851343555921      7.55015875461045     10.80981339590467
  H   4.88361459121134      8.57050687306994     12.97414633808457
  H   6.36803276549581      8.28713677498343     13.90826673264008
