52
Coordinates from ORCA-job DAJRAH_2_1_tpss_d4_lanl2dz_631gpol_Fe2.opt
  Fe  7.70069474517084     10.96188208865037     13.98092786660815
  N   5.87005539791646     10.22398201055474     13.97734938636470
  C   5.36523725678218     10.14801487792422     15.39444955481783
  C   6.54900733949690     10.13758530106776     16.35431506076455
  N   7.50444923278728     11.24738758089585     15.98394276651822
  C   7.00474982398544     12.55954730163291     16.49440896392445
  N   8.98104135039784      9.57038648785414     14.60819942963976
  C   9.52312690311127      8.54963407883392     13.88907066939093
  C   10.53618038125385      7.73349329373419     14.38524983280642
  C   11.02328168930869      7.96249057887108     15.67858144583308
  C   10.47220143114277      9.00678956765241     16.42992558295578
  C   9.46366008700454      9.79109684907649     15.86929347549294
  C   8.84445385191893     10.96382662750714     16.58755376918245
  N   6.83160166681669     12.60969795897116     13.46929795583597
  C   7.43588296666578     13.82324198720158     13.43206816987568
  C   6.73563531671989     14.99309850830026     13.14019939241936
  C   5.35862930968340     14.91426613511420     12.89301677346725
  C   4.73336304647846     13.66079844387736     12.92340251292638
  C   5.49976387924542     12.52781412976447     13.19890539767749
  C   4.97941874048970     11.11610068178962     13.14357608422688
  N   7.71661408277261     10.25939489342741     12.17343874457251
  C   8.46855480798765     10.63758767069887     11.11336862513137
  C   8.42189233289328      9.95927732158096      9.89303116701262
  C   7.56422491321028      8.86145378442323      9.75798569596416
  C   6.76559384902869      8.48088776710909     10.84784905058607
  C   6.86610594233497      9.19392417489518     12.04061337678943
  C   6.05997910229180      8.90367081741727     13.29171639475678
  H   4.73108656186946      9.26269355480671     15.53306046692376
  H   4.74534187149919     11.03498058808164     15.56151340993276
  H   6.20514818791949     10.25928418692521     17.39214944418391
  H   7.09454806519026      9.19063192537572     16.28369032004781
  H   6.92775708036369     12.53910516070116     17.59039137919862
  H   6.02362429263893     12.77348886264535     16.06343553893505
  H   7.70100165137646     13.34739310773446     16.19399862839119
  H   9.12124683918571      8.39904360456988     12.89289012173774
  H   10.93210119143585      6.93323490284801     13.76560831650522
  H   11.81179803597798      7.34001088907418     16.09527631311516
  H   10.82003545049259      9.21477896254323     17.43910729251828
  H   8.76299678239755     10.77917237310234     17.66927413367453
  H   9.46137766649574     11.86332622420932     16.45220580843837
  H   8.50273106059976     13.83562379459616     13.65008773111379
  H   7.26150585383013     15.94373574990432     13.11705537718374
  H   4.78234932941459     15.81066675174485     12.67712091395758
  H   3.66843265614364     13.56256472221859     12.72509810283151
  H   3.93757658853315     11.03205512083607     13.47754060383152
  H   5.02364586101035     10.76045880211331     12.10654655709844
  H   9.11650420275240     11.49674608969625     11.26819116808130
  H   9.04702647342708     10.29256399748803      9.06891647578881
  H   7.50625928271218      8.31595196600836      8.81912776675362
  H   6.07495546953070      7.64418876777989     10.76933828789845
  H   5.09642241245148      8.42819183529378     13.05802387717565
  H   6.61312768585540      8.25107714087646     13.98031481914099
