43
Coordinates from ORCA-job CAXVAZ-oxo_2_3_tpss_d4_lanl2dz_631gpol_Mn3.opt
  Mn  8.85987779593218      3.98748016425470      1.35641373566299
  F   8.37362147835590      2.58314106459561      2.21627612754706
  O   8.29062329130099      5.29037179723901      2.12601006311509
  N   9.76726265194190      2.71861856035294      0.06240910497541
  C   11.56759042116276      2.86295706118884      1.61524106924176
  H   11.38789200183568      2.05057281688495      2.33111013617545
  H   12.64116899107499      3.08724880008376      1.62034742061550
  C   11.06427432883581      2.41850620298615      0.26190479641808
  C   11.75748850817868      1.66229066765070     -0.68572911229776
  H   12.80294681024392      1.40340362810810     -0.53731303229838
  C   11.06337920573412      1.23464792578830     -1.82931367014246
  H   11.58206959415670      0.65100995800067     -2.58672429593897
  C   9.70285762476594      1.54045338039451     -1.99838396672894
  H   9.15413663666290      1.18709115363970     -2.86792166539515
  C   9.07130716899848      2.30007823357147     -1.01186375236779
  C   7.60017667612780      2.62955326172577     -0.91755085071276
  H   7.12083683131337      2.73827066131402     -1.89811910519707
  H   7.09907434209205      1.81227692586334     -0.38305246395529
  N   7.37665937327345      3.88785435347495     -0.09868572790656
  N   10.79487413835312      4.06987531005233      2.11836468979249
  N   9.64670214848930      5.26335893265978      0.04493436427708
  C   11.41742870804769      5.36249557381495      1.63525788622957
  H   12.51094748334594      5.29189305474217      1.68085263416747
  H   11.09450691663644      6.15003909658085      2.32887314716352
  C   10.90229978929245      5.70678143088682      0.26171864191606
  C   11.52594449348016      6.50107390541809     -0.70201430610249
  H   12.53664561584647      6.86861782652661     -0.54277119129199
  C   10.81287810407190      6.82394924276286     -1.86717697605373
  H   11.28090408699607      7.43768594887911     -2.63361386714931
  C   9.49375241978432      6.37798636871175     -2.04162069209101
  H   8.92215963391661      6.65032491419666     -2.92543511258544
  C   8.92027147852353      5.58676687997466     -1.04421052083089
  C   7.48660829765033      5.13087380835315     -0.95673333983518
  H   6.90874053123402      5.91785014696475     -0.45443019280958
  H   7.03337328380882      4.94837373603771     -1.93854477889911
  C   6.02383910726822      3.83809292675670      0.56662407661396
  H   5.98750231049139      2.95449127654983      1.20880595974946
  H   5.24000808682335      3.78443653071681     -0.20018848141389
  H   5.90573574788298      4.74019043115805      1.17202430912436
  C   10.73697986932748      4.05558317912342      3.62545548534507
  H   10.15667754668890      4.92108743148901      3.95479394860539
  H   11.75555699203376      4.09818818180448      4.03298158729347
  H   10.23991947801836      3.13525724872165      3.94199791797450
