48
Coordinates from ORCA-job CAXVAZ-CH3OH_2_1_tpss_d4_lanl2dz_631gpol_Mn3.opt
  Mn  8.99516149489820      3.86323153848269      1.16612692859092
  F   8.34634924887802      2.73944406830708      2.33219501680223
  O   7.98404065129743      5.32283184250428      2.23028472251631
  N   9.81965702975576      2.55691920860129      0.01916798587503
  C   11.62695623476828      2.71508744563919      1.56686093065679
  H   11.37096153323971      1.96490926112170      2.32648434534932
  H   12.71615240507935      2.84956686461549      1.57710571903833
  C   11.11483411373402      2.22933924528500      0.23628328020127
  C   11.80730703194495      1.44395151942729     -0.68498662082457
  H   12.84511321490266      1.17156414095285     -0.51017459043805
  C   11.13076442409750      1.00992318665748     -1.83561508691145
  H   11.65004248893052      0.39953646771664     -2.57105599022610
  C   9.78754713667475      1.35881425214265     -2.04083396185440
  H   9.25063541775283      1.02012939587538     -2.92341791343417
  C   9.14901375903127      2.14594794027556     -1.08138984928702
  C   7.69343763808280      2.53838324663574     -1.07838960060711
  H   7.29237555985051      2.66648952769552     -2.09191161428449
  H   7.12554693524373      1.73217789059219     -0.59553387459442
  N   7.46994201994054      3.78850768796644     -0.25506057906768
  N   10.92678744548598      3.99740675484171      1.96969127147611
  N   9.73090597032001      5.20572486935109     -0.08608803036063
  C   11.62413491401724      5.20296987524767      1.38155117212664
  H   12.70636670784690      5.03096500909410      1.31816024963214
  H   11.46881871618057      6.04040471594390      2.07466277684826
  C   11.02719625286821      5.57196421380678      0.04333404628405
  C   11.66359705495471      6.28365818421036     -0.97451052144992
  H   12.70377838087494      6.58369246098403     -0.87398609628930
  C   10.93099501707497      6.59933102124008     -2.12952066266606
  H   11.40730388127512      7.14793245857761     -2.93914392402814
  C   9.58966363931077      6.20289127116852     -2.24910401812753
  H   9.01391897389430      6.43977817089768     -3.14043976618652
  C   9.01102342696579      5.49198927024898     -1.19741206304485
  C   7.57563334684844      5.03295619310516     -1.10550585969946
  H   6.99042455570566      5.81276220661017     -0.60066899520420
  H   7.12635121189865      4.86673700814732     -2.09299496461042
  C   6.10353756157880      3.72265503142108      0.37022932177082
  H   6.06649301492591      2.84647247663326      1.02277956384930
  H   5.33231782387985      3.64927119283327     -0.40818895435113
  H   5.95329835666213      4.62855282161405      0.96158566672840
  C   10.92681711158944      4.08326265167010      3.46971333621714
  H   10.44951732009388      5.01932274233691      3.76935626808640
  H   11.95423620441080      4.05863924820787      3.85754440048519
  H   10.35429976623993      3.23891263031182      3.86138239141004
  C   8.36122548348234      6.69958503918737      2.54356159545461
  H   7.48070696081321      7.22428276704207      2.92515869651873
  H   9.17090611808953      6.72740932659858      3.28105866445945
  H   8.68455577880649      7.14329655017908      1.60047544360325
  H   7.62167066580204      4.88024910799472      3.02859974356688
