42
Coordinates from ORCA-job CAXVAZ_2_3_tpss_d4_lanl2dz_631gpol_Mn3.opt
  Mn  9.02507442123019      3.91338653260609      1.08022330185298
  F   8.18338469499175      3.05921700208249      2.31346176354074
  N   9.72996627108266      2.54892787529147      0.02011079439395
  C   11.83240655957905      3.22746227552123      0.96064463151209
  H   12.62101561530793      2.74718172739144      1.55230071028067
  H   12.31600975955040      3.92320163038546      0.26084162285368
  C   11.03912914400249      2.22608792618525      0.15171998941063
  C   11.53146948483192      1.10436036477815     -0.51540435879301
  H   12.57472779035426      0.81502396535138     -0.41513632876211
  C   10.65201376765294      0.36401634094663     -1.32324231159197
  H   11.01857347589850     -0.51456314096329     -1.84968617882156
  C   9.30842336552472      0.74933939139319     -1.46928589901916
  H   8.63086813121154      0.18583508954993     -2.10599756717562
  C   8.85772093256711      1.86704444710292     -0.76825872000233
  C   7.45497829146176      2.43686663288436     -0.72533371858164
  H   6.92278617784399      2.31218188645805     -1.67794514815542
  H   6.87655184199375      1.93572929426540      0.06189171669313
  N   7.55130192915149      3.89591620545609     -0.33564529700349
  N   10.92161458965932      4.03862664311185      1.87354841728735
  N   9.70221911083788      5.39885135904444      0.05359120283461
  C   11.30624170915607      5.49901672745934      1.83142811349497
  H   12.39465185212183      5.62633411062756      1.91317200100110
  H   10.84802234501875      5.97972584120461      2.70677101952894
  C   10.74826218640838      6.10490303988362      0.55736587400592
  C   11.15834461217418      7.27633237503685     -0.07800599911204
  H   11.99284328281376      7.85571149558820      0.30904246484070
  C   10.45765384315458      7.69581921375276     -1.22232121799039
  H   10.75233616867310      8.61447982066455     -1.72508663232584
  C   9.38710328153138      6.93994835001983     -1.73067035488016
  H   8.85349671283074      7.25925828792047     -2.62250110623642
  C   9.03333391532090      5.76510310122666     -1.06866422975150
  C   8.00806394130270      4.74359490198139     -1.51169585938461
  H   7.14005675312083      5.20784685102864     -1.99556904757633
  H   8.48227970858753      4.07715682430043     -2.24556553027378
  C   6.24856346568420      4.40461186292711      0.21035027157917
  H   6.00073556911452      3.83708264728063      1.11150199555967
  H   5.45094752498946      4.29763586143313     -0.53697797350214
  H   6.37215825728240      5.46269134941656      0.46529135396790
  C   10.98765340106131      3.50333994150328      3.27818647989980
  H   10.26872595278255      4.04416975641576      3.89935391908148
  H   12.00215066943277      3.62861763658725      3.67896170038332
  H   10.71853949270407      2.44412655489867      3.25823413493673
