43
Coordinates from ORCA-job CAXVAZ-oxo_2_1_tpss_d4_lanl2dz_631gpol_Mn3.opt
  Mn  8.85490562116455      4.06565443377913      1.35448868408597
  F   8.41914033871404      2.57056847066074      2.13274221898782
  O   8.27286544610464      5.27756506150136      2.16282896557043
  N   9.77894878033622      2.77808007018005      0.03914654282001
  C   11.55242313865357      2.86498117895810      1.61522208823889
  H   11.34385976084798      2.04280269872640      2.31169413875331
  H   12.62808605585017      3.07652722058152      1.65025032357392
  C   11.06694778296944      2.45091554938745      0.24889340051942
  C   11.75606973457901      1.67647946941257     -0.68715405656247
  H   12.79592370039399      1.40271573032150     -0.52641828484542
  C   11.06419040259295      1.24601862423405     -1.83025877814057
  H   11.57925017207971      0.65000969609213     -2.58040064499968
  C   9.70471979162229      1.55457911696774     -1.99812974836162
  H   9.14890593352633      1.18629483984565     -2.85692758235887
  C   9.07988596446985      2.33218084777896     -1.02123386171799
  C   7.60675633405418      2.63059635531079     -0.90288844682848
  H   7.09935946711000      2.72025778130419     -1.87130205840492
  H   7.13896779292668      1.80905473084585     -0.34539125474737
  N   7.38147724282572      3.88909868905971     -0.09215939801993
  N   10.78320249981807      4.06957266340435      2.11814026993652
  N   9.63913189629156      5.29734299350487      0.05335683999063
  C   11.41786111578837      5.36130988922690      1.63763349571607
  H   12.51066426411113      5.27728334676060      1.67346291692503
  H   11.11139662943527      6.14742642151724      2.34058341766346
  C   10.90071581085032      5.72346499520796      0.26641447235186
  C   11.53175965429202      6.50468787781176     -0.70286220893122
  H   12.54640870823385      6.86381384662717     -0.54970287620914
  C   10.81963573321511      6.82309820879207     -1.87073319505463
  H   11.29346891594799      7.42589012328679     -2.64235842390988
  C   9.49852237128965      6.38151203355509     -2.04768469646665
  H   8.93435550956793      6.64574884321342     -2.93868403128378
  C   8.91883796627570      5.60306723109541     -1.04410878319306
  C   7.48820510728744      5.12745686182658     -0.96341522693324
  H   6.89250517904800      5.91221840518546     -0.47833534773494
  H   7.05117590301362      4.92826652533322     -1.94919103360429
  C   6.03005822642819      3.82245177554025      0.57500912182447
  H   6.03380794893175      2.97330848716223      1.26344580826610
  H   5.25076780965956      3.69260389521094     -0.18723972107417
  H   5.86945847383060      4.74896508466844      1.13162148592922
  C   10.72123557529734      4.03473854306406      3.62489768845268
  H   10.19166856355500      4.92495777146078      3.97289061381503
  H   11.73952747185574      4.00964480474538      4.03461371001490
  H   10.17044520515314      3.13788880685061      3.92024345594658
