70
Coordinates from ORCA-job ATAVEY01-OH_1_4_tpss_d4_lanl2dz_631gpol_Fe2.opt
  Fe  -0.01635201431491     13.16090603838368      6.56822497778182
  S   5.16610716818494      6.56179718555012     11.48326767881804
  S   -1.23765144374624     17.06288049858753      5.17845103481400
  C   4.09278091726425     10.37429391842563      8.52324931878850
  N   2.16966690419084     12.96912276887340      6.75293872896780
  C   4.46486580014436     13.27151001262238      6.12478483472807
  H   5.19702853135937     13.83383055753940      5.55087896898236
  C   3.87696695869267     11.48488068441700      7.65711270817832
  C   2.51917026713620     11.90800244673572      7.52166947589540
  C   1.69326779550086     10.11842291541093      9.05435338039290
  C   4.85355908664570     12.20598796222984      6.92597178700746
  H   5.90350876593128     11.92471703525303      6.98704932397969
  C   3.05914039018629      9.71286778242004      9.20998408160735
  C   1.43982777678118     11.22110663627453      8.19585470628889
  N   5.24120123888904      9.70475172403415      8.89994749252929
  C   -0.44591735715121     15.66199337460777      5.23814691090884
  N   3.54347143249082      8.68552186591097      9.97582235079134
  C   3.10245365248033     13.63139471005258      6.06324185530584
  H   2.74083369138278     14.45886928944183      5.45657246877630
  C   5.78695844338483      7.77787042806832     10.38917094566315
  C   4.86505256610608      8.69520466856325      9.77543815815265
  C   -0.85803632501865     11.06060076276655      8.55861195345781
  H   -1.84192809095543     11.45836127742049      8.32531229315447
  N   0.17307447576963     11.66679753727439      7.95998209480088
  N   0.15494527617055     14.61053049025000      5.27441085963339
  C   6.75760770546984      5.94256803442198     11.75195372653371
  H   6.90592289229148      5.10173084154099     12.42072018933081
  C   0.59404988023730      9.48861967730693      9.67841266457197
  H   0.77313136037534      8.64152886276919     10.33626895632265
  C   7.72003265165715      6.63111779657615     11.03926193059062
  H   8.77862103069375      6.39149717522467     11.07494312709413
  C   -0.68558520416604      9.96578501531607      9.42824755523795
  H   -1.55753596956402      9.50590055318787      9.88614279052317
  C   7.16754465608963      7.68050955501900     10.25962968571546
  H   7.76558595309868      8.33484386837061      9.62902026550208
  H   6.18820458875590      9.90192622263762      8.59568338431856
  S   -4.84135655812907     20.07242255414504     11.35778559037262
  C   -3.95371993999873     16.19337958626425      8.42235588979805
  N   -2.16670876982588     13.45850193223684      6.72253735045366
  C   -4.43999941783577     13.37284314809826      5.95675894077377
  H   -5.18227748177973     12.88745274081742      5.32823309123049
  C   -3.79176104976226     15.07561234034700      7.55476609478018
  C   -2.47325630108419     14.53029030451231      7.49684059270798
  C   -1.58474477100075     16.19678491148665      9.12450213354045
  C   -4.78185735187365     14.45816343960961      6.75423119935888
  H   -5.80356390789968     14.83369383079334      6.75565531525087
  C   -2.91088597290158     16.73458921939780      9.19425405080177
  C   -1.38184981152625     15.09722597151680      8.24867429541842
  N   -5.05241577271403     16.97043247757169      8.73250780341385
  N   -3.34240211930449     17.79461842775163      9.94696514873152
  C   -3.11427661374253     12.89669229888349      5.96364701323577
  H   -2.79053403067824     12.05541594523346      5.35479370011345
  C   -5.50446552284399     18.92782607754815     10.21260689418090
  C   -4.63935380803829     17.92505278194722      9.65177405636789
  C   0.89532311567285     15.03901428722432      8.74971411570988
  H   1.85726308979457     14.57526661522521      8.55729639434804
  N   -0.14364808576265     14.54725992577380      8.05866237046357
  O   -0.18910288839660     11.93674741199393      5.28280842571299
  C   -6.37761982500158     20.84800821510553     11.52379346272900
  H   -6.48639849964964     21.69781789675247     12.18878573202454
  C   -0.47945853051869     16.69889759966979      9.84150453924912
  H   -0.62149140395904     17.54162388700687     10.51357740324675
  C   -7.35280157365607     20.26171554636219     10.74078550625906
  H   -8.38205854766076     20.60644676948185     10.70658093304681
  C   0.76267733507313     16.10600403081279      9.65636622365711
  H   1.64172089353738     16.46261480499775     10.18691766541541
  C   -6.85601233126392     19.16401913915798      9.99050879655890
  H   -7.47186749862276     18.57426489746267      9.31497563231763
  H   -5.98552653319057     16.88648229872883      8.34464537311029
  H   -0.11797496790111     12.42696851259732      4.43262560047407
