70
Coordinates from ORCA-job ATAVEY01-OH_1_6_tpss_d4_lanl2dz_631gpol_Fe2.opt
  Fe  -0.05176048392596     13.08688278538460      6.14618092854138
  S   5.06761770044993      6.83079219459637     11.72346080607545
  S   -0.95916241745345     17.31710283004879      5.39716537193540
  C   3.98812448148835     10.42650392091105      8.50593158861566
  N   2.06429407887624     12.81399762600097      6.46152323589981
  C   4.38322749119737     13.20281720988574      5.97757473946248
  H   5.12565591966072     13.77053011116811      5.42285325577356
  C   3.77188689374519     11.47579167330431      7.56728963481110
  C   2.40559393949922     11.82486946401145      7.32966573979420
  C   1.57941329160375     10.10296202130316      8.93810651242207
  C   4.76232186849530     12.19906477441180      6.85828814550482
  H   5.81679040413251     11.96963103172393      7.00196978919171
  C   2.94974558847775      9.75819083418379      9.17695164942806
  C   1.32136917813910     11.14427301990126      8.00641500505631
  N   5.14372934975495      9.83288789282835      8.97776815678306
  C   -0.31828892876954     15.85344926033980      5.20846499765386
  N   3.43654804188556      8.79793760018704     10.02375768444330
  C   3.01487239074360     13.48761310743533      5.80268511043007
  H   2.66236686899319     14.26539868759701      5.12937691530496
  C   5.69219422979604      8.01601332219427     10.59790958412514
  C   4.76541661484698      8.85641188377170      9.88878402985485
  C   -0.97489088289260     10.93592344014058      8.30093795476556
  H   -1.96338536349945     11.28999749258464      8.01940767721796
  N   0.05487915471605     11.54352439586289      7.70641195831581
  N   0.13609297261180     14.73711413606171      5.09936383757546
  C   6.66793221661880      6.30044779001733     12.10517686142288
  H   6.81705869493680      5.50297211367815     12.82493357936849
  C   0.47754648746410      9.47527813837197      9.56012666849729
  H   0.65864815693702      8.67575977367625     10.27461054231799
  C   7.63605626729012      6.99500153017685     11.40610446958193
  H   8.70066382750813      6.80661888511679     11.50830394904939
  C   -0.80532937298653      9.89510012452323      9.23694958219341
  H   -1.67911975723132      9.43421575308086      9.69061062953535
  C   7.08069120238612      7.97600014752169     10.54400815655382
  H   7.68246518720609      8.62386273196097      9.91026487571398
  H   6.09591767207706     10.05213889625072      8.70675703862685
  S   -4.66720393648664     19.91533089738575     11.56729216183902
  C   -3.85137937203308     16.14822694249357      8.46890967614872
  N   -2.12741630176929     13.50923352732694      6.56269152487769
  C   -4.43137349241607     13.45818179429639      5.88713232800677
  H   -5.19966748018965     13.00722669444912      5.26451676527062
  C   -3.71064364060835     15.07230138833853      7.54716476193818
  C   -2.39448754016244     14.52693445984800      7.42335972997435
  C   -1.47471165245900     16.10299614163988      9.12771447009401
  C   -4.73275958063131     14.50226183202254      6.75123547951284
  H   -5.75097627730005     14.88276201092638      6.81190647327425
  C   -2.79249323654591     16.65200148338380      9.24229993598118
  C   -1.28530478673499     15.04141621255530      8.20097370374843
  N   -4.94202941195654     16.91452830550234      8.83264021428891
  N   -3.20515992482206     17.68131646963309     10.04696987870345
  C   -3.10757273045647     12.98721465943916      5.81145827319663
  H   -2.80160641509421     12.18840614980894      5.13996937762458
  C   -5.35700848539070     18.81217834346359     10.39727418032423
  C   -4.50686761980493     17.82870366389188      9.78188650402773
  C   0.97889360440615     14.92633857411211      8.68954392773319
  H   1.93453209586274     14.45095416525484      8.48221017929520
  N   -0.06602844856050     14.47433698541162      7.99087688191702
  O   -0.40064165272146     11.79844713357755      4.86902875991977
  C   -6.19752840344981     20.68793746236545     11.79167127792843
  H   -6.29021099605547     21.51451343231531     12.48766469599724
  C   -0.35768781807954     16.56006042548905      9.85860379856924
  H   -0.48653477385258     17.37326225025311     10.56885067141631
  C   -7.19037364394232     20.13077818968699     11.00962521764961
  H   -8.21923208643181     20.47842069767638     11.00902617055237
  C   0.87583250808113     15.96323067480139      9.63880792328690
  H   1.76239492594994     16.28827158494645     10.17767036477876
  C   -6.71228169417882     19.05859188124891     10.21192595768613
  H   -7.34388408261802     18.49326859616544      9.53003520473909
  H   -5.88190289978764     16.85353291979625      8.45721250880447
  H   -0.28469771453929     12.10215745027937      3.94493035905075
