69
Coordinates from ORCA-job ATAVEY01-oxo_1_5_tpss_d4_lanl2dz_631gpol_Fe2.opt
  Fe  0.01698169610634     13.19992930922219      6.28495129464836
  S   5.00480674080503      6.83665265343323     11.77477266538200
  S   -1.00356524838502     17.35476167926198      5.37871525638519
  C   3.97677811444914     10.41373959728936      8.51885304865050
  N   2.09016377504565     12.84510833777101      6.50003007689721
  C   4.39285698398150     13.09580225298545      5.88976398450718
  H   5.13454031894840     13.60507091336997      5.28008014621319
  C   3.77543074027620     11.44860513286347      7.56063430577174
  C   2.42016924289336     11.86000179516850      7.37269609895801
  C   1.57262574488542     10.21692434395928      9.05020289467710
  C   4.76500481513073     12.10219135861358      6.78514121791436
  H   5.81267815657774     11.82408347230286      6.88553710799743
  C   2.93393952224368      9.81470041178922      9.24762738902650
  C   1.33124206245537     11.24578457174218      8.10080345024219
  N   5.11885355240580      9.77306829793021      8.95981898938066
  C   -0.30453182955586     15.90636381543759      5.23922792978749
  N   3.40637131798884      8.85143623729525     10.09890311194598
  C   3.03357189321728     13.44813512651042      5.76940753736637
  H   2.68273568043236     14.21572264023037      5.08376398010026
  C   5.64151718712779      7.96796283740573     10.60155212410571
  C   4.72984341266991      8.83870214271114      9.90996195443535
  C   -0.96278378873922     11.14937763002881      8.46876493077920
  H   -1.94302223364227     11.53748148678900      8.20388266799191
  N   0.07512428111519     11.69086915153076      7.82728300035400
  N   0.18451188039678     14.80550755115246      5.16097941730588
  C   6.59103733011600      6.23506042585868     12.10549301356066
  H   6.72965465158370      5.44487265801667     12.83533999969853
  C   0.46399575033844      9.65666719945402      9.72240440412296
  H   0.63068203875717      8.86622723789207     10.45030800117352
  C   7.56359825571522      6.86731048128725     11.35526338074277
  H   8.62090970834780      6.62824875191697     11.42043370649175
  C   -0.80831629238597     10.12802824103510      9.42861356308405
  H   -1.68723754098897      9.71934509630491      9.92075912148243
  C   7.02330337957617      7.85809158157997     10.49497434889251
  H   7.63058033049980      8.46331337324861      9.82531797393688
  H   6.06885290802174      9.93603909178665      8.64473555651010
  S   -4.74892162516018     19.79592334426512     11.58706050214706
  C   -3.84217182695030     16.10674495230430      8.42027730027812
  N   -2.04256459632622     13.52613147093343      6.50813039551093
  C   -4.32046736312115     13.45624013321303      5.76893974413498
  H   -5.06369215154775     13.00746613048724      5.11521426337558
  C   -3.67532545336644     15.05108352210428      7.47915969477065
  C   -2.34971878916154     14.53307199175817      7.36959290455141
  C   -1.46504210544018     16.10162353805765      9.09283493968744
  C   -4.66644638703445     14.47419934686070      6.64865829540350
  H   -5.69368250609889     14.83188242973041      6.69023495917560
  C   -2.79721577513911     16.61478285504888      9.21310528421004
  C   -1.25794641749982     15.06178134299136      8.14864766611511
  N   -4.94752546802482     16.84746429351394      8.78931494062570
  N   -3.23444808909588     17.62032798453707     10.03331875490536
  C   -2.98804715162905     13.00360029779234      5.71796324842986
  H   -2.65352639673140     12.22464799591656      5.03710435226701
  C   -5.40870037766675     18.70627101450003     10.38754113438065
  C   -4.53655123518421     17.75064252088256      9.76016295821656
  C   1.02461236654500     15.00746458059602      8.60023364661878
  H   1.99104592304311     14.57199132383941      8.36426900390697
  N   -0.01984151246149     14.53727234648505      7.90845649188091
  O   -0.16277994963886     12.09058172690806      5.09447673132654
  C   -6.29420124258528     20.53683600728490     11.81281955827754
  H   -6.40794872537498     21.34689265937888     12.52495406104219
  C   -0.35240233277646     16.57563857752728      9.81888249912431
  H   -0.49304148793030     17.37315481138879     10.54436850129357
  C   -7.27020124737780     19.97983977435522     11.00937000086882
  H   -8.30471729354595     20.31017146925261     11.00610240481667
  C   0.89552961048440     16.01942889995939      9.57098574271108
  H   1.77955222943199     16.36170804537474     10.10272068433767
  C   -6.76642781281366     18.93343434728467     10.19395346636445
  H   -7.38182248384951     18.37256065345463      9.49380562988399
  H   -5.88296686438339     16.77795272683649      8.40404258883994
