69
Coordinates from ORCA-job ATAVEY01-oxo_1_3_tpss_d4_lanl2dz_631gpol_Fe2.opt
  Fe  -0.00182500747631     13.12363921552270      6.37182015874576
  S   4.96935669209096      6.97550408990193     11.81429290169019
  S   -1.14810173795820     17.13132766046527      5.11830134114262
  C   3.88436330726512     10.46787635609613      8.48341818214753
  N   1.94142806997784     12.82290604196330      6.42732797186539
  C   4.22642865123751     13.09008126516612      5.77707930652498
  H   4.94781242516754     13.59559276327926      5.14063916746493
  C   3.67102213536340     11.47770701245301      7.50008003792411
  C   2.31162067151545     11.86634341297916      7.32288543532965
  C   1.48361655240638     10.26702649598990      9.04431968200964
  C   4.63583979280177     12.12678707396701      6.68998665928874
  H   5.69021373577209     11.87059283536491      6.77608283573513
  C   2.85031293468446      9.87821599856967      9.23718030535653
  C   1.24259893053578     11.27099822126745      8.07292211188716
  N   5.03343662473717      9.84596125934507      8.93033759529012
  C   -0.36856236215873     15.71934248914310      5.18726028196980
  N   3.33786628022917      8.93943209669799     10.10607268291575
  C   2.86090192429428     13.42312341644095      5.66394890841171
  H   2.47981115153379     14.16781355605934      4.97065724068199
  C   5.58481817157902      8.08458634299429     10.60886356452114
  C   4.65985388562372      8.93117510648957      9.90566868420514
  C   -1.05674579920730     11.20173097919200      8.43684359547778
  H   -2.03513612707383     11.58493298942115      8.16319637578092
  N   -0.01238583333862     11.72295523253623      7.78562971027555
  N   0.24070885014383     14.67779796591987      5.24186188565905
  C   6.56383165623276      6.39572048709931     12.14302956199700
  H   6.71624939188620      5.62415377254254     12.88984429854329
  C   0.37070284159741      9.73004356210834      9.72829449320379
  H   0.52772602471811      8.95706395164149     10.47660429459127
  C   7.52371682528798      7.01844995598947     11.36877863769755
  H   8.58360723286909      6.78993589157309     11.42912899558862
  C   -0.89879451599184     10.20195720385652      9.41850378426985
  H   -1.77990282323445      9.80861044816470      9.91879109643504
  C   6.96659770250861      7.98411471597200     10.49118935237663
  H   7.56227199562018      8.57868195324471      9.80184066817212
  H   5.97879423067639     10.00501982715814      8.59938134717220
  S   -4.68664411606393     19.70275074983697     11.66697232578309
  C   -3.73526395868322     16.07278605990361      8.44523698447186
  N   -1.90087797154212     13.55596220546153      6.48310630354100
  C   -4.16728439791693     13.50260655226701      5.71136643039724
  H   -4.89433553395700     13.07403046223468      5.02686732164760
  C   -3.55937529757553     15.03911254723200      7.48082411945757
  C   -2.23243840858389     14.52777797657681      7.38025742568986
  C   -1.36727907670867     16.05603924404091      9.14772209357979
  C   -4.53517258323243     14.49029185374905      6.61582401632964
  H   -5.56300720166920     14.84663003757924      6.64654462957884
  C   -2.69995418491598     16.57002386461356      9.25889520289817
  C   -1.15778231050233     15.02918784532851      8.19171348039522
  N   -4.84642210241872     16.80371086483701      8.81576953191133
  N   -3.14954027972650     17.55914855777196     10.09197692665206
  C   -2.83404501582727     13.05631127719232      5.65985748808163
  H   -2.48035344217334     12.30717784848396      4.95675968916615
  C   -5.33097308158185     18.63155609602099     10.44259119730070
  C   -4.44885079506653     17.69087098276221      9.80656570746698
  C   1.11157001212013     14.91655561937860      8.67954325870695
  H   2.07233240789043     14.45890379171501      8.46015382661431
  N   0.06864224268461     14.47797342406903      7.96674522781953
  O   -0.23948429951704     12.01238231489716      5.18364078235622
  C   -6.23740368038113     20.43219976950876     11.89270401820018
  H   -6.36087236011645     21.22877622121743     12.61828063821090
  C   -0.25573498854365     16.50088984378480      9.89405049927921
  H   -0.39000795780548     17.28996878253078     10.62985820462527
  C   -7.20378862237457     19.88516550762369     11.07108455881853
  H   -8.23981290711066     20.21066774296980     11.06480391347657
  C   0.98593966329230     15.92425944554027      9.65593001766162
  H   1.86750533503566     16.24492570735683     10.20504375202807
  C   -6.68802112991586     18.85587769080842     10.24141936849754
  H   -7.29481444408952     18.30451688194820      9.52636474268150
  H   -5.77520399494004     16.74376058418135      8.41316316432509
