74
Coordinates from ORCA-job ATAVEY01-CH3OH_1_1_tpss_d4_lanl2dz_631gpol_Fe2.opt
  Fe  0.00860804886982     13.25031676329438      6.73374925127295
  S   5.10690640985183      6.91001707092466     11.76433688832319
  S   -0.94609302430286     17.26719369817924      5.21972739567892
  C   3.94385258124953     10.56463101469416      8.64104465101208
  N   1.92666936472190     12.99551239139505      6.73298537382879
  C   4.22716394723188     13.40814036912747      6.16470932651176
  H   4.93720368648714     14.00066996787372      5.59328812334055
  C   3.71241216055870     11.63770705555154      7.73062142698605
  C   2.34151065077079     11.98418952581858      7.55821967324724
  C   1.54181000924317     10.23941905616283      9.14386206329782
  C   4.66680146443402     12.38538623116227      6.99961882561168
  H   5.72954631637195     12.16817724952771      7.08799680716470
  C   2.91987442431892      9.88391095374682      9.32865764709409
  C   1.28660245908549     11.30287578474817      8.24301598970484
  N   5.10911276464038      9.95762664764658      9.06857676041717
  C   -0.33150061913382     15.77758916726975      5.30399589750749
  N   3.42972688626559      8.90515773427532     10.14061824895938
  C   2.85404567837364     13.69469374305222      6.05108761190418
  H   2.46419863309382     14.48883224213012      5.42031973637546
  C   5.70003798287027      8.11280172780909     10.64065819021042
  C   4.75426686954443      8.96493956663332      9.97116220355697
  C   -1.01214267590661     11.15975545177377      8.57781881704627
  H   -1.99854375161968     11.54397873944773      8.33726809147513
  N   0.02190310903809     11.75679063961944      7.95649889432460
  N   0.13429549344958     14.66268315742770      5.37061224973249
  C   6.71757581115607      6.37639728055404     12.09595748030068
  H   6.88659567331292      5.56874068326238     12.79976483474878
  C   0.43949378008472      9.62730629870648      9.77790488279116
  H   0.60614085530711      8.81063242251182     10.47553417601252
  C   7.66587346656760      7.08321993299627     11.38246812061519
  H   8.73315432215019      6.89582430324650     11.45427265376116
  C   -0.83654465982070     10.09891848129966      9.48604069650084
  H   -1.71397397949679      9.65866973335886      9.95336354510946
  C   7.08661584232817      8.07622992180080     10.55003448481592
  H   7.67074365174793      8.73527160081958      9.91129737595693
  H   6.05437386348127     10.19006230656616      8.78446079352426
  S   -4.64548062701269     20.03249637566412     11.56713359871092
  C   -3.73634009343388     16.21498734101619      8.55780665336793
  N   -1.90785193404883     13.55381727133132      6.77720592196098
  C   -4.20059639516479     13.41944147040615      6.06147644565092
  H   -4.93660407407047     12.92032422808276      5.43637680289890
  C   -3.57774148695985     15.11374693342839      7.66713498931205
  C   -2.25269794965584     14.59868050130744      7.58736035292582
  C   -1.36430739008155     16.21769166131031      9.25672703348663
  C   -4.56558129673223     14.48865773305046      6.87156544253754
  H   -5.59577527095881     14.83877535582891      6.88653429290379
  C   -2.69248092360842     16.75236627023476      9.33448538916868
  C   -1.17553225092108     15.14198650422054      8.35476182108736
  N   -4.84101152389882     16.97388808945233      8.89122916775997
  N   -3.13200023225002     17.79218864212084     10.11054451316227
  C   -2.86591750422140     12.97628784485972      6.03090290147263
  H   -2.53965291358533     12.16180438576217      5.39173402426384
  C   -5.30457474771255     18.89711904183646     10.41063888636946
  C   -4.43171825625384     17.91483839820274      9.82519060931351
  C   1.08989275277137     14.99492079318320      8.86360331096679
  H   2.04224939043389     14.50949848147039      8.68005989439590
  N   0.04243255501956     14.54890379345081      8.14891790919300
  O   -0.25994615131357     12.11098036549472      5.05814180358062
  C   -6.19075637635726     20.78381634836550     11.76178079574325
  H   -6.30430461725125     21.62135874944572     12.44135087797427
  C   -0.24967348149268     16.67546217100985      9.98840192146362
  H   -0.36685951618938     17.50277977007138     10.68348743102461
  C   -7.16568442379038     20.19625482916790     10.97969411361384
  H   -8.20010153974409     20.52661171699186     10.96174879614883
  C   0.97489151355601     16.04832158248642      9.78915330074267
  H   1.86131692172202     16.36703955200252     10.33177941715728
  C   -6.66144487098254     19.11759687113705     10.20671315851833
  H   -7.27618139457874     18.52929373805955      9.52887082874555
  H   -5.77291260944135     16.89387401621342      8.49984328721887
  C   0.63791083969695     11.03083249151378      4.69344338728633
  H   1.67309948683839     11.38345036867302      4.62633148250266
  H   0.54645392377702     10.27992971004239      5.48111546361023
  H   0.31276392382970     10.61066787487169      3.73526319092646
  H   -0.12118895225977     12.89039981381715      4.45951159411159
