56
Coordinates from ORCA-job BUSVAO_2_5_tpss_d4_lanl2dz_631gpol_Fe2.opt
  Fe  13.32826588226679     10.22479946997802     11.62982699880016
  N   12.62324583764173      8.35272225403909     12.39506843146125
  N   11.45074036507497     10.41515422227484     10.51001859063976
  N   12.89449612643370     11.77051142080973     13.02236924143923
  N   14.30356580134614     11.22882643201416     10.00498152541606
  N   15.27845499586363      9.70773827214462     12.49385741240735
  C   12.92956277737276      8.02074117049446     13.67727254912889
  H   13.57711524256593      8.71581268160759     14.20683474873522
  C   12.46118580540778      6.85608249147171     14.28304539587242
  H   12.72897531840188      6.63886243288572     15.31389788025188
  C   11.65714325162819      5.98244957597297     13.53857957903396
  H   11.28240818893321      5.06224800131946     13.98132277898810
  C   11.34734827083395      6.31356935084581     12.21332401987898
  H   10.73162926639963      5.66304079165344     11.59756269471483
  C   11.83998842766608      7.50499699380079     11.68146109558816
  H   11.61082995083220      7.80503835845147     10.66298697747722
  C   10.29448464676733     10.77271539894210     11.11844667936400
  H   10.37695568623352     11.07374986120180     12.15967669309537
  C   9.06238639258112     10.76826774113770     10.46235917171896
  H   8.16415075935510     11.06976178275050     10.99527386187443
  C   9.01335429491449     10.37497193828945      9.11907892323189
  H   8.06855671279298     10.36071104993984      8.58012850379860
  C   10.20447907673487     10.00376202832660      8.47978090162975
  H   10.21387823563417      9.69395351761532      7.43775571800335
  C   11.39479736323531     10.03989459980380      9.20581862499293
  H   12.34473626567688      9.77147656814497      8.74669652412731
  C   13.36918088280453     13.03319172481397     12.87108699880632
  H   13.97588708285543     13.21324984264741     11.98617632337854
  C   13.10863666638270     14.05180456521620     13.78873941609455
  H   13.51261510005744     15.04653829688389     13.61849628002439
  C   12.32954095218430     13.76525680656341     14.91660432441812
  H   12.11071895577750     14.53772091865444     15.65030905065481
  C   11.83734627066301     12.46390724358657     15.08139219381703
  H   11.22774413077847     12.19451202102540     15.94015983389993
  C   12.13822103284001     11.50159679485084     14.11757662336445
  H   11.77000976184901     10.48126887180659     14.20671834923901
  C   13.72237017461462     12.31876448260691      9.43686151807013
  H   12.75694086950768     12.60902219902516      9.84515668100022
  C   14.31070973579764     13.02279266965385      8.38771585929763
  H   13.80821057132841     13.89263610756341      7.97243990200492
  C   15.54292238693095     12.58313770554146      7.88469487636609
  H   16.02337674972085     13.10762362902882      7.06168319233938
  C   16.14329764285667     11.45611749510008      8.45943645971084
  H   17.09645973524114     11.07798555316438      8.09896970163402
  C   15.50041760080976     10.81391212289324      9.51774527928977
  H   15.93966205221064      9.94530296535057      9.99995800702665
  C   15.83602972374608      8.49377090225489     12.24735064209641
  H   15.19733466657252      7.76943437550273     11.74500193291969
  C   17.14238367938207      8.17245236584501     12.61556467943139
  H   17.53989431273035      7.18518715139003     12.39380061996579
  C   17.91651067343215      9.14019768076357     13.27068091289011
  H   18.93810003113035      8.92063015961888     13.57293950161476
  C   17.34840794084106     10.39309511655338     13.53217337252325
  H   17.90907002876694     11.17140271655295     14.04371681675661
  C   16.03366832676162     10.63542127818613     13.12999219798229
  H   15.55479731883066     11.59260783143906     13.31963293171205
