58
Coordinates from ORCA-job BUSVAO-OH_2_6_tpss_d4_lanl2dz_631gpol_Fe2.opt
  Fe  13.46612243423493      9.83179311325250     11.30486016705318
  N   12.53850720916946      8.35152728920235     12.66031610967749
  N   11.50746694617651     10.20434726115143     10.32524533707337
  N   12.97264757913588     11.39199086394667     12.83866934508247
  N   14.20250825781014     11.33304625205208      9.91038484613475
  N   15.45472735887794      9.61291674695956     12.30224629941697
  O   13.86104798771180      8.47750197807261     10.12055772808089
  C   13.07709652632727      8.05745107666094     13.86896699810420
  H   13.90400987085087      8.68463438670439     14.18936655770233
  C   12.60490464151454      7.01456141707082     14.66573749787305
  H   13.07039460383274      6.81744271934436     15.62809936019171
  C   11.53571395177999      6.23772787269274     14.20118458707409
  H   11.14691261456795      5.41637573886490     14.79901685837193
  C   10.97692144461200      6.53685048682979     12.95154534553412
  H   10.14651451044630      5.96112854384186     12.55076251440415
  C   11.50466285293381      7.59581633671096     12.21232086988112
  H   11.10531492154429      7.86492654633684     11.23819714788903
  C   10.43910319497783     10.84880196402548     10.85324467315443
  H   10.52750435421163     11.16299728932439     11.88836595520904
  C   9.28046110296276     11.10805622762091     10.12080040327763
  H   8.44899934512324     11.62594092993613     10.59231909834656
  C   9.21638492675051     10.69255668850552      8.78442078368775
  H   8.32658725772096     10.88146815262368      8.18775326251894
  C   10.31909362466096     10.02817284082014      8.23252391791752
  H   10.31439010389938      9.68497935575068      7.20099653386773
  C   11.44179678271291      9.80156621168923      9.02859654713619
  H   12.32374222726371      9.28675746367665      8.65695478188663
  C   13.63626697649415     12.57690284951081     12.80211270889288
  H   14.40281250772105     12.66795995546940     12.03762387391787
  C   13.38051976678303     13.61767778458757     13.69543346041518
  H   13.94425867604718     14.54403306300491     13.61863031836821
  C   12.39962284279816     13.44040841887032     14.67960470036412
  H   12.17690408867744     14.23256758229749     15.39105137530215
  C   11.71607680029147     12.21908211554296     14.73231355744825
  H   10.95132696287471     12.03096204569941     15.48167711565526
  C   12.03046188588460     11.22778217271181     13.80161039738034
  H   11.52540512835728     10.26625178909140     13.81348130555837
  C   13.50045281059591     12.44219807292110      9.56746645216218
  H   12.58306283143324     12.61883341348856     10.12302905164816
  C   13.91983951901782     13.30955214063990      8.56144892616186
  H   13.32493719755985     14.18745043994370      8.32274642862188
  C   15.10559052134109     13.02224914964946      7.87098900595090
  H   15.45654932069887     13.67891644759407      7.07795600014753
  C   15.82735174768915     11.87318456799973      8.21586656467825
  H   16.74834721579617     11.60810531894877      7.70322103397184
  C   15.34417837265964     11.05393316398923      9.23648226199170
  H   15.86076992157966     10.14508518158531      9.52724434916648
  C   16.29859038898936      8.69866584194967     11.75368110621697
  H   15.91539792131143      8.18522942056302     10.87623281285968
  C   17.56614570886462      8.43330965691946     12.27217832637943
  H   18.19807233075578      7.69223460103273     11.78917691835092
  C   17.99505703541438      9.12743882274982     13.40987465816029
  H   18.97775981016011      8.94182384907026     13.83771537493245
  C   17.12827779327053     10.06407734515365     13.98729493430214
  H   17.41198867394471     10.62570500492447     14.87383724196195
  C   15.87728024113100     10.27624232592610     13.40849025501953
  H   15.18234560596606     10.98994425027876     13.83810066347959
  H   13.66341276408026      7.53141745421771     10.27534529398533
