165
QM: 112 at, MM: 53 at, Links: 6
Fe    1.583300    8.335200    6.933100
N    -0.047800    8.997100    5.984600
N     0.852000    6.484100    6.924000
C    -1.137000    8.247500    5.587700
C    -2.095100    9.069400    4.896500
H    -2.936800    8.792000    4.553700
C    -1.563400   10.317800    4.828700
H    -1.950300   11.075400    4.405300
C    -0.297500   10.273300    5.521700
C     0.557900   11.368000    5.671000
C     1.408900    5.356300    7.479200
C     0.597600    4.189600    7.192000
H     0.776000    3.294900    7.455900
C    -0.466500    4.625400    6.472000
H    -1.171400    4.092400    6.123400
C    -0.320400    6.056800    6.337400
C    -1.278400    6.869400    5.739300
N     2.458900    8.003800    5.148400
N     2.804800    7.863900    2.971300
H     2.661600    7.925100    2.104900
C     1.945100    8.222100    3.947700
H     1.081000    8.585600    3.793800
C     3.938600    7.388900    3.568600
C     3.720000    7.486900    4.912300
H     4.342000    7.236600    5.585300
N     3.214300    7.673300    7.881700
N     2.314500   10.186200    6.942300
C     4.303500    8.422800    8.278600
C     5.261600    7.601000    8.969800
H     6.103300    7.878400    9.312600
C     4.729900    6.352600    9.037600
H     5.116800    5.595000    9.461000
C     3.464000    6.397100    8.344600
C     2.608600    5.302400    8.195300
C     1.757700   11.314100    6.387100
C     2.568900   12.480700    6.674300
H     2.390500   13.375500    6.410400
C     3.633000   12.045000    7.394300
H     4.337900   12.577900    7.742900
C     3.487000   10.613600    7.528800
C     4.444900    9.801000    8.127000
N     0.707600    8.666600    8.717900
N     0.361700    8.806500   10.895000
H     0.504900    8.745300   11.761400
C     1.221500    8.448300    9.918600
H     2.085500    8.084700   10.072500
C    -0.772100    9.281500   10.297700
C    -0.553500    9.183400    8.954000
H    -1.175500    9.433700    8.280900
K     3.854400    1.974400    1.715000
N     5.325200    0.149100    3.697900
N     2.425100    3.715300   -0.278300
O     6.683900    2.011700    1.904700
O     5.365900    3.409400   -0.213800
O     2.460800    4.248000    2.578600
O     3.537600    2.403100    4.434400
O     3.378800   -0.825100    1.804100
O     1.797700    0.836000    0.159900
C     6.747100    0.501800    3.741800
H     7.255100   -0.255300    4.128000
H     6.867900    1.283800    4.337400
C     7.311200    0.829200    2.380000
H     8.289700    0.966900    2.443200
H     7.141800    0.081300    1.754100
C     7.352900    2.521600    0.755000
H     7.350100    1.841100    0.036100
H     8.293800    2.732600    0.980300
C     6.654700    3.755700    0.287700
H     6.561900    4.393800    1.040000
H     7.186100    4.192500   -0.424300
C     4.717200    4.529500   -0.819800
H     5.269200    4.877700   -1.564100
H     4.601000    5.252600   -0.153900
C     3.370800    4.088100   -1.340900
H     2.978200    4.822500   -1.876100
H     3.498900    3.311700   -1.942700
C     1.897400    4.934400    0.360700
H     1.163700    5.297500   -0.196900
H     2.615100    5.615700    0.395200
C     1.379500    4.698600    1.757600
H     1.004300    5.537500    2.124300
H     0.660800    4.016800    1.740200
C     2.122300    4.271900    3.959200
H     1.334000    3.695400    4.122400
H     1.894400    5.195200    4.234800
C     3.292400    3.775400    4.754100
H     4.094400    4.316400    4.544000
H     3.103200    3.865400    5.721200
C     4.474000    1.835100    5.336000
H     4.134400    1.915400    6.262000
H     5.331500    2.325200    5.277500
C     4.697600    0.377300    5.001200
H     5.268400   -0.026000    5.703200
H     3.825100   -0.089900    5.019600
C     5.178700   -1.257800    3.306700
H     5.456200   -1.829700    4.065600
H     5.791400   -1.443500    2.551400
C     3.777600   -1.638500    2.899900
H     3.750500   -2.592900    2.638800
H     3.157700   -1.506500    3.660700
C     2.119600   -1.246200    1.287200
H     1.400300   -1.013400    1.926000
H     2.119000   -2.229100    1.166200
C     1.867800   -0.575600   -0.021900
H     2.597500   -0.794500   -0.654500
H     1.017300   -0.904900   -0.406300
C     1.651700    1.494700   -1.096100
H     0.930500    1.064000   -1.621000
H     2.493500    1.426900   -1.612600
C     1.313900    2.947400   -0.852100
H     1.046000    3.363200   -1.709700
H     0.539200    2.997700   -0.238500
C     0.232400   12.639200    4.959600
C     1.129700   13.118000    3.995400
H     1.951500   12.660700    3.859000
C     0.844900   14.246400    3.233900
H     1.456400   14.536600    2.568000
C    -0.336500   14.949400    3.448100
H    -0.541500   15.715300    2.924400
C    -1.212900   14.517600    4.436700
H    -2.005200   15.011600    4.610500
C    -0.941200   13.362400    5.179300
H    -1.559900   13.069100    5.837700
C    -2.528300    6.215600    5.233400
C    -2.578900    5.660500    3.947200
H    -1.822500    5.727500    3.376400
C    -3.728500    5.010400    3.496100
H    -3.756100    4.643700    2.620700
C    -4.827100    4.902000    4.328800
H    -5.600600    4.436400    4.032300
C    -4.804000    5.466400    5.588300
H    -5.568200    5.405100    6.149700
C    -3.649700    6.132500    6.041700
H    -3.640000    6.526900    6.905400
C     5.073900    6.845600    2.766700
H     5.910900    6.966600    3.261400
H     5.127900    7.322600    1.912200
H     4.928000    5.890900    2.599900
C     2.934100    4.031200    8.906700
C     2.036800    3.552400    9.870900
H     1.215000    4.009700   10.007300
C     2.321600    2.424000   10.632400
H     1.710100    2.133800   11.298300
C     3.503000    1.720900   10.418200
H     3.708000    0.955000   10.941900
C     4.379400    2.152700    9.429600
H     5.171700    1.658800    9.255700
C     4.107700    3.308000    8.687000
H     4.726400    3.601200    8.028600
C     5.694800   10.454800    8.632900
C     5.745400   11.009800    9.919100
H     4.989000   10.942900   10.489800
C     6.895000   11.659900   10.370200
H     6.922600   12.026600   11.245600
C     7.993600   11.768400    9.537500
H     8.767100   12.234000    9.834000
C     7.970500   11.204000    8.278000
H     8.734700   11.265200    7.716600
C     6.816200   10.537900    7.824600
H     6.806500   10.143400    6.960900
C    -1.907300    9.824800   11.099500
H    -2.744400    9.703700   10.604900
H    -1.961400    9.347700   11.954100
H    -1.761500   10.779500   11.266400
Cl    3.129500    8.219000   -0.193300

QM/MM links (counting starts at zero)
  9  112
 16  123
 22  134
 33  138
 40  149
 46  160
