134
QM: 55 at, MM: 79 at, Links: 10
Fe   10.806800    0.684600   14.764200
N    10.820200    2.059600   17.871000
N    10.232100    1.683300   16.704400
N     8.761700    1.360700   14.544000
N    10.172600    0.154200   12.653900
N    10.617000   -0.548200   11.576800
N    12.834800   -0.151500   15.004300
N    16.414400   -2.358300   14.833700
N    11.616600    2.599900   14.160800
N    12.879600    6.506900   13.223200
N    10.039300   -1.281800   15.383600
N     8.671900   -5.095200   16.508800
C     9.996100    2.863800   18.605100
C     8.825200    2.990200   17.880500
C     9.027500    2.261900   16.706500
C     8.179800    2.092900   15.520700
C     6.905100    2.627900   15.367900
C     6.217400    2.354600   14.189800
C     6.801500    1.571700   13.211800
C     8.095400    1.105300   13.417000
C     8.856600    0.324200   12.432200
C     8.466800   -0.260200   11.230200
C     9.617200   -0.814200   10.694600
C    13.850100    0.178600   14.174900
C    15.036300   -0.492900   14.085700
C    15.274500   -1.623200   14.897600
C    14.230600   -1.951900   15.793700
C    13.083700   -1.213400   15.804400
C    12.561800    3.256900   14.882700
C    13.002600    4.527100   14.616600
C    12.469000    5.242700   13.526300
C    11.479700    4.566100   12.780000
C    11.110900    3.294900   13.124900
C    10.160700   -2.368100   14.588700
C     9.768500   -3.632800   14.925400
C     9.157900   -3.878400   16.168800
C     9.062800   -2.757500   17.016300
C     9.506200   -1.527800   16.594600
H     8.045200    3.476300   18.126000
H     6.517200    3.159600   16.054100
H     5.346700    2.716400   14.052000
H     6.333800    1.351800   12.413800
H     7.591500   -0.280900   10.859000
H    13.727300    0.935800   13.612400
H    15.704200   -0.197900   13.476900
H    14.327400   -2.687700   16.389100
H    12.402600   -1.467800   16.416200
H    12.949000    2.795800   15.618500
H    13.664800    4.928700   15.167300
H    11.066500    4.998800   12.040100
H    10.451000    2.866900   12.592000
H    10.529200   -2.238000   13.722800
H     9.916100   -4.352100   14.321100
H     8.707500   -2.854900   17.891700
H     9.430000   -0.798600   17.200400
C    10.404800    3.567900   19.884600
C    11.353000    4.731700   19.514400
C     9.144700    4.137100   20.541600
C    11.075500    2.635000   20.898500
C     9.790400   -1.530100    9.368800
C     8.386500   -1.734400    8.787500
C    10.606100   -0.672000    8.390700
C    10.425700   -2.910600    9.514900
C    12.154300    1.559700   18.155300
C    12.038600   -0.768000   11.475900
C    17.523200   -1.964400   13.968100
C    16.628700   -3.472100   15.729200
C    13.839100    7.196000   14.061700
C    12.312500    7.222600   12.095100
C     8.921200   -6.266700   15.694000
C     7.979000   -5.283200   17.767000
H    11.619400    5.192500   20.302500
H    12.121000    4.375400   19.080600
H    10.908200    5.337900   18.929600
H     9.383200    4.585800   21.344200
H     8.546000    3.426000   20.742000
H     8.721900    4.751200   19.950000
H    11.309300    3.125600   21.679200
H    11.860400    2.265700   20.507700
H    10.477300    1.933100   21.131200
H     8.443900   -2.190700    7.956400
H     7.860600   -2.244500    9.393200
H     7.981800   -0.881200    8.655400
H    10.712700   -1.138400    7.569100
H    11.460500   -0.489800    8.765800
H    10.146100    0.148400    8.235200
H    10.508800   -3.312100    8.657300
H    11.287400   -2.824300    9.908200
H     9.877100   -3.456400   10.067000
H    12.619500    2.196200   18.685600
H    12.094000    0.735200   18.627500
H    12.624500    1.424700   17.339900
H    12.233900   -1.266400   10.690500
H    12.330200   -1.255800   12.239600
H    12.489700    0.068800   11.441800
H    18.227800   -2.600100   14.050000
H    17.836600   -1.106400   14.234000
H    17.232100   -1.928300   13.064400
H    17.473200   -3.865600   15.533300
H    16.623000   -3.163200   16.627300
H    15.942000   -4.120600   15.612700
H    14.007500    8.060200   13.699600
H    13.495300    7.284600   14.942700
H    14.649200    6.696500   14.086800
H    12.718200    8.081100   12.032400
H    11.376000    7.325600   12.227900
H    12.468000    6.737200   11.292700
H     8.507800   -7.026100   16.092900
H     9.858800   -6.418600   15.624300
H     8.557400   -6.125600   14.828400
H     7.709500   -6.192000   17.853000
H     8.552200   -5.053200   18.490000
H     7.210800   -4.720500   17.777500
Cl    8.341900    7.359000   11.892400
Cl    6.227900    6.020400   13.383200
C     7.109400    6.111900   11.856200
H     7.520300    5.269900   11.681900
H     6.493200    6.315600   11.161000
S    15.777600    5.009500   17.740700
F    16.156500    7.390000   18.792300
F    14.201000    7.080900   17.986600
F    14.734000    6.177400   19.848400
O    16.155500    5.532900   16.461500
O    16.869700    4.547200   18.562700
O    14.618300    4.160700   17.718200
C    15.189400    6.476600   18.641900
S     9.100300    2.986300    9.678400
F    10.241400    5.375800    9.598400
F     9.970600    4.465700    7.669200
F     8.277200    5.297700    8.727400
O     8.315800    2.301500    8.693200
O     8.412800    3.348400   10.882800
O    10.411800    2.462900    9.892100
C     9.414700    4.633800    8.883900

QM/MM links (counting starts at zero)
  1   63
  5   64
  7   65
  7   66
  9   67
  9   68
 11   69
 11   70
 12   55
 22   59
