67
Coordinates from ORCA-job ADAROP-OH_1_4_tpss_d4_lanl2dz_631gpol_Fe2.opt
  Fe  5.93673866961631      8.53207299873861     12.29177911029532
  S   9.70830504194353      7.83207809707948     10.11521381713280
  N   5.56968689132628     10.10383471941961     11.09537808045590
  N   6.91947686147985      5.19476483310446      9.66132745266359
  N   5.28812338826341     11.57395379304015      9.58505933284332
  N   5.32263075449889     10.23403442717467      9.81833872505768
  N   6.24547242957947      6.38689810588805      9.70550490178113
  O   4.20857785163632      8.21380808728408     12.57658296125447
  C   7.22930332208125      4.59001838626857      8.40283562595828
  C   4.21120895218636     11.32102437624489      7.40760232393850
  H   3.77184935220366     10.38828258250937      7.75031391139303
  N   6.15167144694341      6.70955453819425     10.96762128946518
  C   5.03380324120532     12.06442554183421      8.26346292847265
  C   5.33941774628979     13.74712093376378      6.56837997244920
  H   5.78556144363243     14.68651393892185      6.24626297034310
  C   5.70781912314354     11.32713696904056     11.70939686715872
  C   7.24640445987712      4.76855943138063     10.91072629680069
  H   7.82510465658646      3.87304902456794     11.08502942112675
  C   6.75157470254138      5.75144271170054     11.75475162242198
  C   3.96614152710250     11.80921862418755      6.12344697298386
  H   3.32232428640780     11.23879244895667      5.45571681000837
  C   4.26328854086076     13.52893251098799      4.27804559989093
  H   4.39251697124282     14.61576972648446      4.21198985022119
  H   3.24841031007573     13.27913381374082      3.94445528763675
  H   4.96574421395321     13.06710554432146      3.56819729920083
  C   7.56006902226306      5.41445562247447      7.32027162060301
  H   7.58345109602480      6.49315088750956      7.44880889543817
  N   6.48619721958087      7.14558943978420     13.62994590316097
  C   7.87665221649710      3.41800263052439      5.94168781913674
  N   6.04000513375657     10.20787502562600     13.72812618030324
  C   7.21133206985237      3.19524760337296      8.28250039845591
  H   6.92335387964580      2.56902719134506      9.12499224951296
  C   6.83323488119892      5.98422991312615     13.17985046450880
  H   7.19099942762640      5.19736416793080     13.85031807431638
  N   7.79093681827224      8.82134418330372     11.92643169291327
  C   5.60937148620444     13.27340643283753      7.85460361992699
  H   6.27656228324099     13.82489631172653      8.51415261641627
  C   6.00750591477931     11.34867802510313     13.13418468558485
  H   6.20903961370603     12.30259530436294     13.63557749857434
  C   4.51983617094967     13.02631309030235      5.68053419744746
  C   5.52425327819727     12.28540679659289     10.72711429450539
  H   5.50926100630746     13.36517895865222     10.75122920377557
  C   7.87678593482509      4.81731650793492      6.09865451655778
  H   8.14388368952326      5.45087638643211      5.25420909595852
  C   7.54334036368660      2.62141395060600      7.05317711919566
  H   7.53164443962623      1.53715858091878      6.95368894827723
  C   8.60342812820556      8.39753019218704     11.13864001315015
  C   6.37443313404359     10.06383500882508     15.14082758904908
  H   5.42779442800634     10.01315889586954     15.69736680964346
  H   6.93333514492020     10.93738387066560     15.51104791411319
  C   6.47201620937642      7.43577858455752     15.07460327165579
  H   7.04765908077347      6.63733665804591     15.57261064644682
  C   8.20050830328290      2.78682575574513      4.60638905668671
  H   8.64913308081261      1.79384017706716      4.73170700893819
  H   8.89351835582224      3.41006378590281      4.02813441054901
  H   7.28714972913768      2.66326825935069      4.00525843573486
  C   5.01451983185581      7.37970985499194     15.59016303110504
  H   4.41147152651608      8.12365745977897     15.05585360583033
  H   5.04201349683199      7.66426849273333     16.65314823047409
  C   4.36926924875217      5.99808855774619     15.42802493063028
  H   4.97024900850999      5.21113996759612     15.90682232434775
  H   4.24114659470381      5.74864022617067     14.36696060294246
  H   3.37536634336116      5.98769696051553     15.89166144523656
  C   7.19022242943869      8.77803811706786     15.37681102922929
  H   8.12201888770299      8.82433504856034     14.79809374509558
  H   7.46413704167049      8.75995733705175     16.44084140755486
  H   3.80902786583285      7.88502361426830     11.74141596606112
