71
Coordinates from ORCA-job ADAROP-CH3OH_1_3_tpss_d4_lanl2dz_631gpol_Fe2.opt
  Fe  6.01137677734985      8.47536678726543     12.48772102201430
  S   8.65844695259747      9.50814727835874      9.31317234526909
  N   5.48410105153974      9.81380875562080     11.17465890185655
  N   6.95228523081569      5.69906605458664      9.73292782404725
  N   5.47156355850913     11.08261109095754      9.46607761391805
  N   5.33550252819611      9.78893342576525      9.86900522698138
  N   6.17897473547604      6.78311415280327     10.01058625331928
  O   3.81984269402897      7.89864446787774     12.90372133327957
  C   7.15695501004852      5.31627625000851      8.36942377336476
  C   4.53412474523359     10.72226594986503      7.24007028946789
  H   3.85981343277486      9.97974154576448      7.65849759531292
  N   6.23874714876159      6.93034339875808     11.31563398082739
  C   5.43763366310239     11.39365278933938      8.07099640105677
  C   6.28108543962841     12.65632458770427      6.20442863396028
  H   6.97002827654543     13.39906150944977      5.80525984092640
  C   5.72381712360145     11.10087476317510     11.62538543164430
  C   7.49563424592970      5.15370529819080     10.85989273753564
  H   8.18316490013946      4.32144021060266     10.82527922728948
  C   7.03004070022589      5.95195362222312     11.89224036112647
  C   4.51627964230902     11.03614594412025      5.87931705647804
  H   3.80975831746256     10.52537705583988      5.22674620308036
  C   5.36559217202042     12.32458721907859      3.86029590684961
  H   5.58519746221727     13.38373750213443      3.67737886243515
  H   4.39334673655194     12.08925649744249      3.41085369997451
  H   6.12827969021198     11.73478752529863      3.33003570645780
  C   7.23878877694202      6.32377166209176      7.39927863560694
  H   7.15722076917502      7.36664887616114      7.69528229278126
  N   6.67115394138287      7.18937229242386     13.80618702249198
  C   7.61775801160727      4.59963945452618      5.70399245870267
  N   5.96303031881633     10.04422375484917     13.66344351515642
  C   7.29445836611382      3.96272714497632      8.04081788693695
  H   7.20026335973454      3.19191347929274      8.80375138610045
  C   7.20562560584256      6.10606313576872     13.30843500886449
  H   7.75136644363227      5.38851251530309     13.92263436410957
  N   8.02841442456887      8.93884447187360     12.01787685085168
  C   6.32569864816359     12.35132068540732      7.56627540541315
  H   7.06132521217068     12.81881007271661      8.21689401595204
  C   5.95216259420295     11.19276543425689     13.03664769856591
  H   6.12116000264881     12.14107790872596     13.54929857127159
  C   5.38044246201903     12.00740955167447      5.33893475540378
  C   5.71851658543546     11.92251407631922     10.50944995053331
  H   5.85210755531546     12.98598717761657     10.37726546366691
  C   7.46643620103988      5.95010827781457      6.07393546029156
  H   7.54679113245244      6.72580213965979      5.31372121920488
  C   7.53107001286631      3.61709893195240      6.70815300353145
  H   7.64069543338534      2.56659087245558      6.44363063502405
  C   8.32069822381822      9.18223958477964     10.87434820354831
  C   6.20663455632420     10.00313766764397     15.10972944203798
  H   5.24495712749257      9.81363881093733     15.60638611867641
  H   6.57475454543795     10.98114130210902     15.45088666135141
  C   6.73976578195616      7.46037468063748     15.24890970473344
  H   7.48981071149648      6.78471482370756     15.69134466441172
  C   7.84489204636696      4.21332456510191      4.25982018904381
  H   8.37630092283930      3.25734456152378      4.17979982794110
  H   8.42613929127890      4.97828936665809      3.73015914973128
  H   6.88540142901998      4.10420324371850      3.73222225232024
  C   5.36187064757280      7.15588017709840     15.88195749081167
  H   4.58875039548243      7.71385550695958     15.33727184912509
  H   5.38020616460140      7.52772751201391     16.91728220254517
  C   5.01521123523540      5.66140570934931     15.86662681410122
  H   5.76496884263813      5.07029135872934     16.41101824957964
  H   4.95835160622646      5.27778052958492     14.83836765981632
  H   4.04154781945057      5.48686668754453     16.34060757147754
  C   7.22245100589191      8.90987741055576     15.47865904309429
  H   8.15160217420991      9.07466202625176     14.91796178335756
  H   7.44809973529812      9.01697858157876     16.54862367354394
  C   2.77411437774876      8.80099628385547     12.46550059878673
  H   3.00375906207761      9.76374746506036     12.92853420571036
  H   1.79649799498849      8.44655909471093     12.81480837637540
  H   2.77614650747349      8.90942208317168     11.37382747533646
  H   3.67911970228032      7.03014536862049     12.47608496360767
