7
Center, direct neighbours
N    -1.831500    4.732800    5.713400
O    -3.553500    4.170800    7.771500
N    -3.890200    6.582400    8.936300
Cl   -4.816600    6.055800    5.778300
N    -1.984100    7.539700    6.759400
Co   -2.860800    5.657600    7.324800
Cl   -0.905100    5.259400    8.871400
