34
Coordinates from ORCA-job AJEVIU_0_2_tpss_d4_lanl2dz_631gpol_Fe3.opt
  Fe  -0.43433583730483      4.31962361154360      3.01996972396629
  S   -0.33364907303137      2.08887464711220     -0.90731956918379
  S   2.67292378783590      7.26105950862558      4.48937561918570
  S   -2.26184154284835      5.70032312957475     -0.63692369204288
  C   -1.00330834182932      6.36565427659614      4.82886540924972
  H   -0.91325024621959      6.99658569214294      3.93870038525700
  C   -0.95464785345367      8.45663941916227      6.07478869889286
  H   -0.90504849398504      8.86646992073120      5.06195824850492
  H   -0.03575936268796      8.72472922468712      6.61167454634853
  H   -1.82255298535487      8.87755806412984      6.59872998417814
  C   -1.13441069447927      6.25407865738016      7.26285558925631
  H   -1.19703534015649      5.18935158955241      7.03018493906391
  H   -2.01589964012931      6.56796019831549      7.83627166219923
  H   -0.22851927634952      6.45691365279849      7.84869832715099
  C   -2.59960471786338      2.76086047762803      2.16219587547877
  H   -2.53177743971397      3.32073574149374      1.22453032180779
  C   -3.54240623863019      0.81896706994830      3.30233334864615
  H   -2.94327998245223      1.23097763097255      4.11675664974464
  H   -3.19515264990377     -0.19204242557536      3.05380739877724
  H   -4.59893807643061      0.77633041337631      3.59625769397311
  C   -4.07445212600265      1.30209351055750      0.89231858866514
  H   -3.82647869121760      2.01940918696187      0.10493365718975
  H   -5.16012226033612      1.28760271536943      1.05375489997802
  H   -3.73821192920393      0.30450241069881      0.58318812415466
  C   -0.05294411239010      2.78758217616432      0.52587606255963
  C   1.82072341520790      6.04391215731474      3.84358671208156
  C   -1.70174753097484      5.65231218327600      0.87231657036327
  N   -1.07600068767147      6.99923841886386      6.00276249071834
  N   -3.39104521445023      1.68670356040750      2.13137787613977
  N   0.15565791517955      3.27392790631766      1.60558081985440
  N   1.21136081578328      5.12680949225147      3.36059466376684
  N   -1.33686416314716      5.65101190667964      2.02858769726751
  O   -1.05007609704719      5.10621069093643      4.72071871623943
  O   -1.97370532874139      3.13013318400448      3.20069196056669
