36
Coordinates from ORCA-job AJEVIU-OH_0_1_tpss_d4_lanl2dz_631gpol_Fe3.opt
  Fe  0.31583716380817      3.75963589996838      3.10994636500433
  S   2.24428350169228      3.26724154760411     -0.95720968531442
  S   3.24795761949192      7.04877526456854      2.33854497235333
  S   -2.84858202260834      6.87897094239779      1.94428704425917
  C   -0.65234986960922      5.80465362216531      4.84456332210013
  H   0.22774228908719      6.35388056518805      4.49593591377596
  C   -1.47637970865272      7.98640800142048      5.54004201090517
  H   -0.48691885016382      8.29244741111796      5.18770560050770
  H   -1.61529765425707      8.31951522148862      6.57603971488018
  H   -2.24132828565616      8.44088858131633      4.89682784734521
  C   -2.85510830408101      5.92037058689078      5.87685717617116
  H   -2.73507947884571      4.83503522134358      5.87846449306695
  H   -3.64089870677361      6.21270374757240      5.16636225710038
  H   -3.11782895591342      6.27084932825129      6.88183621117018
  C   -2.40580301543711      2.86264236365573      2.90164340688540
  H   -2.68355822360704      3.91921807474042      2.95981163899691
  C   -3.19174995999292      0.55716675987383      2.71733041408647
  H   -2.12291250475445      0.37768471976903      2.85028368180142
  H   -3.51579004333902      0.18162692514015      1.73787876105985
  H   -3.76121747737184      0.04834999604206      3.50560942585260
  C   -4.80840243375834      2.48149222317063      2.71506840190356
  H   -4.81586325309350      3.57542431267829      2.75685594694486
  H   -5.40013362042333      2.07748774256697      3.54754347843664
  H   -5.25926287299651      2.15802071332197      1.76757665152819
  C   1.57203495405535      3.20845952119738      0.50645776164758
  C   2.36665988897749      5.82844647914401      2.91005813171931
  C   -1.56852611659631      5.86660636476845      2.00629343329542
  N   -1.58577567290978      6.52692118174384      5.46925855322524
  N   -3.42907626701746      2.00157664951073      2.80006322287159
  N   1.06910960867491      3.07963057629291      1.58960373262065
  N   1.75415986240301      4.92599638848383      3.42915165881458
  N   -0.64942078816420      5.10557133496410      2.08589894256408
  O   -0.75283162531490      4.55752498475115      4.66012645440344
  O   -1.20678169350455      2.48483988290484      2.92951250493224
  O   0.97174763030085      2.58669531257162      4.26749416158100
  H   1.86297488635137      2.93356155141383      4.50764639150318
