34
Coordinates from ORCA-job AJEVIU_0_6_tpss_d4_lanl2dz_631gpol_Fe3.opt
  Fe  -0.07524863006806      4.26094530783455      2.76821258966962
  S   1.67331989408256      0.66952112163419      0.41236638459984
  S   2.44698645192485      7.30377230301375      5.33644963744816
  S   -3.69532251372869      5.50852257155531      0.35228703409026
  C   -1.47500519811240      6.31775755142280      4.36458247487564
  H   -1.61172452015179      6.93292434570454      3.46348528344234
  C   -1.27480420458229      8.47163545119960      5.50157412591270
  H   -1.49387014821057      8.84088871811769      4.49469247638508
  H   -0.27432157543907      8.80964772648999      5.80079206555059
  H   -2.02249587130136      8.86288948259775      6.20354902642159
  C   -1.01960169205232      6.32091092318890      6.76109935322869
  H   -1.05858457276397      5.24545329984937      6.57779057306408
  H   -1.76295261765746      6.60698623661330      7.51618119487976
  H   -0.01650646295180      6.60860155514491      7.10156739123113
  C   -2.58647179031378      2.80415568119833      2.90479341152765
  H   -3.07077630035890      3.73950307123551      3.20919395983469
  C   -2.84810674790619      0.59612139542070      1.89885193512303
  H   -1.76650453563664      0.60286391848811      2.04547511443431
  H   -3.08075315574271      0.49296445453155      0.83156249192178
  H   -3.30147235903339     -0.23697448466384      2.45103826926489
  C   -4.82537725001089      2.11111976669969      2.23070361112960
  H   -5.06736461987440      3.11013964341668      2.60478775881472
  H   -5.39819783571738      1.35808170979496      2.78758774884886
  H   -5.09105226432971      2.05780230445186      1.16744361899422
  C   1.31802755831652      2.03280239048943      1.20111893413233
  C   1.74581163800272      6.19820293321346      4.38089673263605
  C   -2.20204784217694      5.34817491983274      0.95822803114088
  N   -1.31216085488061      7.00805308337875      5.49971375687833
  N   -3.39094039812240      1.86734063940591      2.39210792328187
  N   1.05624300052892      3.04982837997688      1.78805487664540
  N   1.21515517313426      5.38722260833222      3.67221157196684
  N   -1.10020856960340      5.22338707085718      1.42692126080994
  O   -1.46505052088858      5.05899952339211      4.29997432130557
  O   -1.34102066437386      2.64285439618034      3.03470506050906
