35
Coordinates from ORCA-job AJEVIU-oxo_0_4_tpss_d4_lanl2dz_631gpol_Fe3.opt
  Fe  0.31632836851973      4.11719550111308      2.82601063126902
  S   2.67614966726016      1.50660864632467      0.17215077486633
  S   4.26974746186440      5.99603117270448      2.99566676019581
  S   -3.57502128545287      6.52795066268772      2.25394686230754
  C   -0.73356181030291      6.07385792258426      4.59426521656215
  H   -0.08501740590197      6.73308431355914      4.00838809726476
  C   -1.76498214722509      8.12215883540139      5.40124822935750
  H   -0.96840583216929      8.56901830368272      4.79944065991949
  H   -1.70955301733937      8.50879153063469      6.42636937916252
  H   -2.73550380880665      8.37650348991855      4.95635436213486
  C   -2.58155207799599      5.87862684745471      6.16792428044832
  H   -2.24066277643688      4.84184239213263      6.20443812599160
  H   -3.55772541990653      5.93823829947293      5.66716440128417
  H   -2.66301716627594      6.28277881438345      7.18350876071637
  C   -2.30006090869498      2.93133921876680      3.01453993851259
  H   -2.61349246446120      3.89456095311956      3.42524686584765
  C   -3.00648089563105      0.75302936916798      2.16626262489596
  H   -1.93064175563362      0.67437566526202      1.99764147115214
  H   -3.54619430254962      0.64759605246428      1.21678168188059
  H   -3.33693898991799     -0.03136073401363      2.85954087648365
  C   -4.68577159262929      2.44452354169952      2.97377290519416
  H   -4.73205609063100      3.48832446765806      3.29958809020028
  H   -5.13056954520119      1.79186373343545      3.73705496436746
  H   -5.25127592233047      2.34202165099652      2.03899352165737
  C   1.70416027392988      2.60196997055309      0.82981466095192
  C   2.69758479788178      5.69361441756619      2.92431357362619
  C   -2.11671224509251      5.82423261340955      1.99725864790293
  N   -1.60188053076460      6.66554900122465      5.41454073852379
  N   -3.28819415091535      2.07289178520026      2.74007899052775
  N   0.93354598518629      3.45249477864202      1.20900579772018
  N   1.49353732413234      5.57733996082322      2.85267450528805
  N   -1.06383682126911      5.27501521116234      1.85550681781315
  O   -0.63318378326818      4.81444162530582      4.48955256001044
  O   -1.08427355679603      2.65253129446418      2.82395219086252
  O   1.27331242482533      3.16185869103688      3.75240203510034
