36
Coordinates from ORCA-job AJEVIU-OH_0_5_tpss_d4_lanl2dz_631gpol_Fe3.opt
  Fe  0.63419869422343      3.84075741061248      3.06867975864256
  S   0.47625519122015      0.61605182802566     -0.08603450601999
  S   2.47215715468652      7.95227409377956      2.77303989149960
  S   -2.76375848904418      6.67602987539516      1.92748024673029
  C   -0.53319883206787      5.91465565878164      4.94505561014118
  H   0.25118819385663      6.57006750609463      4.54859743311740
  C   -1.64445385443655      8.02251420810455      5.47018611407069
  H   -0.71046659993650      8.42485250759049      5.06622078930416
  H   -1.80534695060578      8.41549237140553      6.48216576016444
  H   -2.47455452926443      8.32667507818072      4.81908664419946
  C   -2.72452854275480      5.82589649826373      6.01268267643719
  H   -2.47011404067376      4.76410002601669      6.04293743596139
  H   -3.58121455927369      5.99147800060341      5.34425811723489
  H   -2.97695830733931      6.18076757221436      7.01943802687244
  C   -2.24665851583992      2.92564441547055      3.06831796455263
  H   -2.54060656262518      3.93133267257037      3.39107626337198
  C   -3.00176016813943      0.80626604585852      2.11634271672175
  H   -1.92905703304456      0.61256114663130      2.17290642771646
  H   -3.33773477319401      0.73251028228174      1.07425859252006
  H   -3.55123299182338      0.07810599640103      2.72739582214755
  C   -4.62175823637362      2.67578212227109      2.56083550410172
  H   -4.63126604135689      3.71788318300668      2.89617085391609
  H   -5.28051379594661      2.07540065796521      3.20312703133357
  H   -4.99304021930955      2.63267715070830      1.52862525512387
  C   0.86921002978704      1.86429601935050      0.85975679605776
  C   2.15965874527039      6.39178352121059      3.04289724572798
  C   -1.42967094260226      5.75199461869101      2.00313160605165
  N   -1.56309343886288      6.56060508474382      5.51103885368573
  N   -3.25336119612480      2.16221476276370      2.61478442574672
  N   1.18015688378620      2.80634916678584      1.54088416161321
  N   1.95688902624499      5.23204980307353      3.30271969481263
  N   -0.46468263659028      5.04369222705016      2.06164753782708
  O   -0.44948427232953      4.66068684315821      4.86296340005208
  O   -1.05687753581696      2.53252552781027      3.12669519223885
  O   1.42751305808214      2.76250943006509      4.22476893589466
  H   1.41379608821937      3.25783668706346      5.07723172043005
