35
Coordinates from ORCA-job AJEVIU-oxo_0_2_tpss_d4_lanl2dz_631gpol_Fe3.opt
  Fe  0.39560516277551      3.80321114837350      3.22180956620201
  S   2.28019794500262      3.57393839757109     -0.80325799622901
  S   3.78914903236067      6.21595358164821      1.81108948946635
  S   -3.10989783731228      6.49999684149131      1.95355729426009
  C   -0.68075622807887      5.94326654875247      4.80328372414716
  H   0.15713818060906      6.48967242005569      4.35742067883233
  C   -1.53998048956198      8.13610976758335      5.41977267760827
  H   -0.59509244825303      8.45219319712030      4.96791645057542
  H   -1.60661773020369      8.53301919124049      6.44049293104187
  H   -2.37212146022148      8.52291282235245      4.81696136936647
  C   -2.79637839912896      6.04668486470013      6.00599130572660
  H   -2.60502860356238      4.97887548986588      6.13244661456888
  H   -3.64151566151192      6.19845194944796      5.31967408500391
  H   -3.02475575742046      6.50347827976011      6.97586296009526
  C   -2.30849150582373      2.75951306730791      3.11796604149594
  H   -2.58293371432241      3.73855371165593      3.52196985538061
  C   -3.10228328197826      0.62417432963731      2.23653189037259
  H   -2.02434265462583      0.47239339610040      2.15095050221763
  H   -3.57226490057785      0.55473749629113      1.24709621287585
  H   -3.53751003855448     -0.13633414722349      2.89803533731871
  C   -4.71762427476491      2.40919964361676      2.95713902817168
  H   -4.72207244223211      3.44524507720518      3.30983117578593
  H   -5.24535288666948      1.77036014548288      3.67837723740129
  H   -5.23631686283201      2.36256939826474      1.99076143921452
  C   1.66764012690720      3.32317485566780      0.66543323174690
  C   2.56631813511170      5.58870555015619      2.64270954948980
  C   -1.73488319511897      5.62023239285210      1.99610441939358
  N   -1.59421850201269      6.67272575187535      5.45112059273829
  N   -3.33506915304661      1.95895476495491      2.79637422647052
  N   1.21682927347415      3.04899453768226      1.74670009527106
  N   1.65981439249273      5.18875070345721      3.33683989815827
  N   -0.73768739264297      4.96228957599731      2.05892275503753
  O   -0.75267737531318      4.68562774526750      4.70059380284623
  O   -1.10683724504056      2.41784145944049      2.97292996947616
  O   0.97781779207766      2.83542604434673      4.37599158847094
