34
Coordinates from ORCA-job AJEVIU_0_4_tpss_d4_lanl2dz_631gpol_Fe3.opt
  Fe  -0.21507560121278      4.34475769981925      2.81252082656965
  S   2.54372745426961      3.27893885462752     -0.57885458414137
  S   3.67880429853234      6.25073904530387      1.56481733309863
  S   -4.51031790570148      5.22943574437694      1.81572940309247
  C   -0.60546432922789      6.18773247258220      4.90498513129767
  H   -0.01272567669755      6.83875651814933      4.25167003609982
  C   -1.05381614726435      8.20857570980187      6.19790125725447
  H   -0.41672871252296      8.64634451703204      5.42349491225396
  H   -0.59396082892134      8.37259348171773      7.18129269283683
  H   -2.03765563429754      8.69495938845708      6.17526872129389
  C   -2.04117433586472      6.00014920211589      6.86995967308812
  H   -2.09343110943889      4.97389024679856      6.50127037422263
  H   -3.04546483224388      6.44103060063594      6.90455715642660
  H   -1.60251080703015      6.01782985732514      7.87619375668612
  C   -2.03656272387032      2.31084339658527      2.25610000121557
  H   -1.56953330365685      2.32538155643257      1.26374381526388
  C   -4.00765621369456      1.78274752819861      3.58878397696613
  H   -3.33901802389576      2.10876155717131      4.38752973477969
  H   -4.39540639385800      0.77885219287260      3.80047003908386
  H   -4.83920978414685      2.49228914160295      3.48591009185929
  C   -3.94754914244109      1.31031768940252      1.12928005139589
  H   -3.26384952412983      1.35397731415989      0.27623783545524
  H   -4.80200408061715      1.97339393670403      0.94077485675595
  H   -4.29949860204268      0.27968936732731      1.26266676125897
  C   1.39139564261474      3.38437776350289      0.53618680112603
  C   2.31484172013958      5.77398535318377      2.26851688450655
  C   -2.88905548109712      5.32015525725859      1.92278842108186
  N   -1.20324900432818      6.77387434047928      5.94867803009930
  N   -3.24677349228372      1.75502670756153      2.33579241368453
  N   0.49572855087385      3.37870747265265      1.35002619072207
  N   1.30230643455755      5.47749844251711      2.86098983923180
  N   -1.69047861592722      5.38712034257859      2.00022518584352
  O   -0.70202087752802      4.95142998240903      4.66894355721340
  O   -1.43901291704671      2.80893731865578      3.25554882237672
