43
Coordinates from ORCA-job CUXRAR-oxo_2_1_tpss_d4_lanl2dz_631gpol_Fe2.opt
  Fe  12.23295897279878      4.84662513591443     10.10569124396014
  S   11.76325358171358      3.95724493515437     12.21831883964856
  S   13.55976259291400      2.84621259879267      9.66032135264698
  S   10.63284775843191      3.96955509993148      8.64144471346918
  O   11.24239606459919      6.11576781304201     10.45043492051813
  N   13.82832764112252      5.52835404967319     10.93328796983662
  N   12.97008770991638      5.62272000244576      8.51236229331027
  C   14.11664735938932      5.51275596468958     12.24300791804933
  C   15.34397555154978      6.05882687160108     12.69217680965239
  H   15.57922893577907      6.03744759156468     13.75352317636818
  C   16.23105646649251      6.64141142231948     11.78787002042117
  H   17.16627852370237      7.06595385718494     12.14776367035144
  C   15.90420365500772      6.70481611576562     10.40552215380211
  C   16.67196251231934      7.32750655341602      9.35656034228008
  H   17.63156251118718      7.77496959417737      9.60603648411653
  C   16.20453982246803      7.38772394919334      8.06026003055312
  H   16.79752106514875      7.88385047532112      7.29508426048370
  C   14.92840837417837      6.82683202871655      7.69378539143740
  C   14.29551171884920      6.88764097657553      6.42210435278071
  H   14.79741460463267      7.36950008197274      5.58527972239439
  C   13.01760868938123      6.35670202332682      6.24827316269968
  H   12.51811270665370      6.43428486708128      5.28571984958777
  C   12.34797547892409      5.73451597042897      7.32979632696083
  C   14.19980864503067      6.17271328029751      8.70838396621168
  C   14.67535362861705      6.11754983103711     10.04081571428220
  C   13.03077033237237      4.97225596473531     13.13962170531665
  H   12.45272272273053      5.80679377438610     13.56265310282950
  H   13.41561494340177      4.37927890934237     13.97794957573297
  C   12.55409620988089      2.28996127389640     12.23571371192168
  H   12.78506672558112      2.03944108140700     13.27985353752863
  H   11.75896558093684      1.60561650009379     11.91580340715594
  C   13.80066544294169      2.17271864927778     11.36038784278102
  H   14.13018053480989      1.12901660168556     11.27665569854710
  H   14.64003307974560      2.75197591195612     11.76378233316574
  C   12.26536608133574      1.73396796727806      8.94127674025588
  H   12.76209439610404      0.86377090997432      8.49618339316082
  H   11.58429651968092      1.39540114457861      9.73004750898146
  C   11.52775569727784      2.53218283120418      7.86780605228438
  H   10.77631927852744      1.90449379280118      7.37386769945405
  H   12.22298084187918      2.91841775915943      7.11191650872208
  C   10.92175328582584      5.24271038015503      7.31297870245314
  H   10.61086441221785      4.82564492670915      6.34813806894825
  H   10.23804934394248      6.06637053173578      7.56473972493767
