48
Coordinates from ORCA-job CUXRAR-CH3OH_2_5_tpss_d4_lanl2dz_631gpol_Fe2.opt
  Fe  12.16604755556603      4.83823596214889     10.23873788533290
  S   12.07312203599663      3.82570539794022     12.55982724123943
  S   13.61971780437421      2.74254409840377      9.65470717357524
  S   10.65954699326088      3.87844848600444      8.39622439066670
  O   10.70192384340781      6.28229628397788     10.60617961633434
  N   14.02156648828342      5.50889775493979     11.00902204033059
  N   13.05215286738246      5.68869782941218      8.52685770011126
  C   14.47146114851548      5.34332537315605     12.26036986270240
  C   15.77563810175968      5.75142091950792     12.62710603484402
  H   16.11747244455272      5.61114083638177     13.65002430811501
  C   16.60786659874697      6.33318532016310     11.67785309120460
  H   17.61199485246889      6.65080516004424     11.95273264921676
  C   16.15454113264812      6.50249843371002     10.34346192763008
  C   16.94061744765354      7.06184102459013      9.27741314623403
  H   17.94888769867639      7.40656841586643      9.49683055634711
  C   16.44081954509648      7.15341396126508      8.00035399885619
  H   17.05107536343406      7.57144304135628      7.20260914597724
  C   15.11509935206229      6.69332435999812      7.68816337351188
  C   14.53664369963180      6.71242117044926      6.39222864440688
  H   15.10367036965888      7.10870675619171      5.55196847163169
  C   13.25441035097120      6.21173996286228      6.19509648132058
  H   12.80618800396738      6.21447572647609      5.20425539080446
  C   12.52538142136629      5.70160235783041      7.29434281576343
  C   14.31497939402248      6.16073372656573      8.73111114030084
  C   14.83598575381744      6.06426037205565     10.06208871582402
  C   13.51551662660205      4.74184613317910     13.27530493020637
  H   13.06163856795504      5.53883395108293     13.88174663141352
  H   14.03569646353828      4.07500239451915     13.97403145220722
  C   12.75423606861711      2.12890410970918     12.30778564804878
  H   13.05309085126830      1.74080517524847     13.29032588417638
  H   11.88400832227554      1.54476219534897     11.98369130155768
  C   13.91790110613894      2.01417045675472     11.31940321014592
  H   14.19789488947178      0.96018538003109     11.19304294115874
  H   14.80787428066360      2.54190462756693     11.68425346135614
  C   12.30077850600580      1.66565105935696      8.93540953210462
  H   12.76044941490652      0.74517648118153      8.55628176592679
  H   11.56417822796259      1.40776562999026      9.70566858132669
  C   11.64857035315374      2.42986353878378      7.77759004424099
  H   10.95961859159866      1.77130995694723      7.23710538453815
  H   12.40270243931067      2.80425484815926      7.07403821624791
  C   11.10757057227280      5.18394972837283      7.15790426283109
  H   10.90500358250277      4.80008020394634      6.15168797674264
  H   10.38434983867545      5.98952110427007      7.34898751185326
  C   10.93595399108754      7.73101360414366     10.65298181377955
  H   10.08811152623056      8.24629319649867     10.19247097598852
  H   11.07270337312807      8.05150923006922     11.69042974219557
  H   11.84603665432056      7.89731311449296     10.07429679224883
  H   9.86085548499126      6.06385114904893     11.05914613742235
