43
Coordinates from ORCA-job CUXRAR-oxo_2_3_tpss_d4_lanl2dz_631gpol_Fe2.opt
  Fe  12.23306947740301      4.84564892151662     10.10513357384774
  S   11.76426647035957      3.95358070738327     12.21647848332481
  S   13.55976927342176      2.84231712466935      9.65497604203510
  S   10.63003106163616      3.97243011186966      8.64221820795129
  O   11.24962357231861      6.11854838566846     10.45206805804571
  N   13.82961130355188      5.52733125762311     10.93370768676548
  N   12.97164022149431      5.62211945378908      8.51138976578395
  C   14.11608125282007      5.51298445059723     12.24358864065147
  C   15.34207687711081      6.06136139737999     12.69378423960422
  H   15.57631706204894      6.04119073634483     13.75537575532864
  C   16.22917906169437      6.64445760157017     11.78982408091705
  H   17.16325635657874      7.07093344254311     12.15041174573011
  C   15.90394633910325      6.70618244383676     10.40698861690179
  C   16.67193570234177      7.32930610593020      9.35843002023662
  H   17.63083401361180      7.77792122610812      9.60854467012799
  C   16.20554040545836      7.38855028504374      8.06172207446271
  H   16.79868908166628      7.88495409430051      7.29685224449313
  C   14.93008884810450      6.82658908965950      7.69440400913620
  C   14.29784980436943      6.88719722518000      6.42236707783784
  H   14.80007947564260      7.36937394876253      5.58591631617232
  C   13.02021306906618      6.35593227307243      6.24759062617548
  H   12.52145935545908      6.43329361560815      5.28463398625905
  C   12.34990698380482      5.73370065515716      7.32872600564509
  C   14.20136246125950      6.17183649596305      8.70852896572833
  C   14.67627332623645      6.11695431087357     10.04130286961074
  C   13.02936705991091      4.97151328350864     13.13878521787555
  H   12.44942383975800      5.80561807760392     13.56009147261626
  H   13.41353920946435      4.37978018873158     13.97827776240406
  C   12.55961553724602      2.28791846092016     12.23455207738981
  H   12.79413982205834      2.03963425221242     13.27841908242175
  H   11.76554068360942      1.60081608911301     11.91803421757169
  C   13.80428000998311      2.17222693178608     11.35633721935469
  H   14.13571878339754      1.12906962302578     11.27325051513067
  H   14.64340714061390      2.75382113194605     11.75685689498168
  C   12.25865291435043      1.73329613898321      8.94270769791730
  H   12.75127084688686      0.86027552542453      8.49851040704701
  H   11.57897410587040      1.39910232001009      9.73450702470034
  C   11.52012301916677      2.53088496034259      7.86935739670538
  H   10.76637577368605      1.90352242406161      7.37860305179831
  H   12.21438480481743      2.91394390827839      7.11095749532217
  C   10.92325588427733      5.24288855230935      7.31155217014741
  H   10.61297480933640      4.82442430172455      6.34712240159314
  H   10.24025489900399      6.06806846956722      7.56031413224949
