42
Coordinates from ORCA-job CUXRAR_2_3_tpss_d4_lanl2dz_631gpol_Fe2.opt
  Fe  12.47006749776965      4.70965034967062     10.03994443434736
  S   11.87735387609555      4.09863740651023     12.20544783420669
  S   13.53285433342031      2.48565034774341      9.78144414944760
  S   10.77548802227083      3.96321179132197      8.62716610395461
  N   13.94635038853502      5.59408316095257     10.91079123445875
  N   13.03681215455120      5.69575930850895      8.47996342162086
  C   14.29667367941167      5.54131023769738     12.20699394864345
  C   15.49133295058997      6.16323909600913     12.64477918827833
  H   15.76203062060307      6.11611913922869     13.69678531722592
  C   16.30464509996192      6.83906044451496     11.73976126460261
  H   17.22060485841162      7.31479433709157     12.08484739092061
  C   15.93103480091659      6.92338617321582     10.36955893219779
  C   16.64684849074813      7.61555141021105      9.32905231800232
  H   17.58167727156783      8.11243223807931      9.57906465375462
  C   16.16335902744560      7.66939186173581      8.03972337527713
  H   16.71708722252874      8.20908652999606      7.27459781170606
  C   14.92156980370288      7.03537103868659      7.67914701246478
  C   14.29963273873375      7.06088314116308      6.40002745696257
  H   14.77869380782217      7.58070289244109      5.57248952485388
  C   13.06827380119828      6.43862556332887      6.20720472436767
  H   12.57784198828746      6.48058973997982      5.23784651171183
  C   12.43736238730320      5.76159791866074      7.27751297552174
  C   14.23144071216484      6.33097542384626      8.68723101591511
  C   14.72949242059947      6.27573046079064     10.01655639100388
  C   13.32835240210789      4.84087663971146     13.12803092500597
  H   12.89598455487449      5.55410140525664     13.84314673975386
  H   13.81091403304636      4.04890434164620     13.71490657667090
  C   12.25635663136583      2.29283802510108     12.30207186750538
  H   12.34822007437812      2.02582738565170     13.36304795664002
  H   11.34579699664634      1.80970168396327     11.92686058495490
  C   13.49987624476371      1.86957636666523     11.51811422165533
  H   13.59268777929307      0.77608417953342     11.50539473805476
  H   14.41887028063353      2.26873981024781     11.96550155635270
  C   12.13942104191980      1.55245252322043      8.99339760740006
  H   12.53918726185067      0.63057711355144      8.55537423170882
  H   11.39360675487379      1.29127300530538      9.75293774042932
  C   11.53848091559903      2.42631623596403      7.89440784463487
  H   10.74483711654709      1.88662810065841      7.36434125892860
  H   12.30533065780806      2.74137446874805      7.17584993837370
  C   11.06186060528335      5.14660223190390      7.21298194915131
  H   10.86089367588653      4.62532910046735      6.26950905381004
  H   10.29299501848181      5.92445737101930      7.32658821752269
