58
Coordinates from ORCA-job CAXBOT_0_2_tpss_d4_lanl2dz_631gpol_Co2.opt
  Co  2.61875990804755      7.66698728879825     10.53140685449156
  N   1.87460102959438      9.25446642082654     11.05405268700589
  C   0.96383139844329      9.82315224181408     10.24145726863314
  C   0.80321173482198      9.02955644249052      8.95879883229614
  O   1.60670619632432      7.97921164342209      8.91845448110573
  O   0.01310356264530      9.38157859794912      8.08086111291244
  C   0.34775457174841     11.01300593299857     10.63274601577420
  H   -0.38668741499418     11.46985203003090      9.97403234022739
  C   0.71271632650106     11.58104118063199     11.86658398116104
  H   0.24699240963924     12.50976075287201     12.19216457247707
  C   1.68592289203364     10.96800520889272     12.67589304401972
  H   2.00577139130030     11.38914161989014     13.62586314751453
  C   2.26688836025065      9.77952697092142     12.23029239075282
  C   3.36299358367598      8.94582482619898     12.86605380049101
  O   3.70838707084027      7.91722513080274     12.11071406940840
  O   3.85134907664501      9.25230407753057     13.95564796295158
  N   3.45709084318613      6.04695448754692      9.95340366312197
  C   4.50215720277508      5.93728930376122      9.12082871987752
  H   4.89587627768535      6.86813766406580      8.72128849985186
  C   5.07701582446380      4.70036662051474      8.79593465992549
  H   5.94707910591978      4.67767015285552      8.14403186468968
  C   4.57956272054883      3.51074793298970      9.33742622533250
  C   5.23546734976902      2.22199826706531      9.01932036399153
  C   5.54669146388446      1.90084612394310      7.68262396126314
  H   5.25480730544353      2.58638030028391      6.88803832772212
  C   6.19451678692970      0.70106184684638      7.37225944625718
  H   6.41743153572624      0.46099574671361      6.33388570199312
  C   6.55017402459013     -0.19111809877407      8.39294952320716
  H   7.05663575163391     -1.12412849664348      8.15125683037665
  C   6.25547510716990      0.12351258918835      9.72657843066624
  H   6.54329678734324     -0.55824588704322     10.52533277151975
  C   5.60088651879345      1.31921025654388     10.03948379412478
  H   5.39943586019243      1.57548442837502     11.07844617151106
  C   3.43637810678723      3.60484679795437     10.19206028391952
  C   2.73422612559649      2.47758019029948     10.74077261038368
  H   3.06481786168767      1.47807914892925     10.47029941989753
  C   1.64569012944548      2.63510722062925     11.56245780697162
  H   1.12347782087727      1.75901422105537     11.93862837553663
  C   1.14628760203620      3.93696414933903     11.90706559049018
  C   0.02093997372079      4.18074461055748     12.75612818043374
  C   -0.67501944067979      3.09613659417585     13.48614279468061
  C   0.04536125713706      2.16292044702752     14.26031797821466
  H   1.12953317260447      2.24287956307920     14.32266374971358
  C   -0.62624983306858      1.16779237766448     14.97769474173191
  H   -0.05774255733192      0.46186994983431     15.58100623631065
  C   -2.02452374192922      1.08614999990634     14.92961566941056
  H   -2.54561534068305      0.30879532455172     15.48587291170523
  C   -2.74989613915804      2.01099645744818     14.16629252454522
  H   -3.83616362385890      1.95093389567315     14.12239044414473
  C   -2.08145552775673      3.01162220688511     13.45384772710630
  H   -2.64404197092741      3.72015658563940     12.84734422335485
  C   -0.41193940330444      5.50377476701568     12.88954173880307
  H   -1.25898277095311      5.73385138635753     13.53228709692531
  C   0.26302762415678      6.54944385911773     12.23817317107004
  H   -0.05992454646737      7.58296132961230     12.34662752971506
  N   1.33959079033878      6.34470968282770     11.47463979248903
  C   1.77382273320514      5.06297895127300     11.31254387906026
  C   2.92189913495279      4.89758667884277     10.46957400673062
