64
Coordinates from ORCA-job CAXBOT-CH3OH_0_2_tpss_d4_lanl2dz_631gpol_Co2.opt
  Co  2.75114690985489      7.54733083786648     10.63586947110935
  N   1.98023344374213      9.08198593374374     11.26988015701786
  C   1.00600961966175      9.67014042039036     10.54550567484438
  C   0.80743810789502      8.99379749251426      9.20366269173003
  O   1.64906554106109      7.98629202902007      9.02028418867503
  O   -0.03643985966386      9.40258000219224      8.40403863440690
  C   0.35003998825053     10.79272495914273     11.05468170896135
  H   -0.43201576318928     11.25760651014935     10.45932990543672
  C   0.73339858048654     11.28048530065413     12.31601246715564
  H   0.23688462710915     12.15546651816746     12.73242621106196
  C   1.75889709261833     10.64626470579743     13.03850365393066
  H   2.09081475672309     10.99506854097225     14.01351201756076
  C   2.37647497442722      9.52633333828146     12.47979898711421
  C   3.50305515422101      8.68570780106014     13.04775547754408
  O   3.84579128804919      7.70011713005531     12.24342560282729
  O   4.00652598812445      8.95758453116627     14.14178227300359
  N   3.51893000538711      5.88229995093131     10.06113177019039
  C   4.59784210371442      5.73632560632824      9.27691646886439
  H   5.03766585353516      6.66217554542475      8.91693307108751
  C   5.13065250704247      4.47763350139645      8.96370924894942
  H   6.02685306679140      4.42394917044928      8.34973229697044
  C   4.56081044607265      3.30529866661148      9.46837933698876
  C   5.17138896823733      1.99242086310840      9.15692993930576
  C   5.51093291978028      1.67308158942713      7.82675301928716
  H   5.27463988278811      2.38036598020850      7.03280163634072
  C   6.11624655825797      0.45011668730399      7.52106028047370
  H   6.36165247642024      0.21288663206625      6.48705737456096
  C   6.40055303603503     -0.46866198962849      8.54047424020258
  H   6.87357714750116     -1.41999729745161      8.30244635467171
  C   6.07765488658713     -0.15668385252886      9.86812075971221
  H   6.30998107538334     -0.85955054270435     10.66668640314537
  C   5.46566296073572      1.06277526071082     10.17586693788049
  H   5.24227464062063      1.31497738262035     11.21134641901094
  C   3.39214271065069      3.44112342031083     10.28087333993114
  C   2.62948633862786      2.33717211660611     10.79460448111725
  H   2.92891485939038      1.32812601515804     10.52293126454314
  C   1.52508977296674      2.52879950942582     11.58653063660428
  H   0.95835215581345      1.67051747663131     11.93864750279560
  C   1.07030797231118      3.84637586899535     11.93215334552101
  C   -0.06250245983181      4.12426117768617     12.76015367403662
  C   -0.81256431847546      3.06015064584367     13.46658934656697
  C   -0.14186847022307      2.09342796989504     14.24426823254904
  H   0.94335889676595      2.13125806156781     14.32516783439243
  C   -0.86287887087243      1.11837229310186     14.94102994542775
  H   -0.33191680351839      0.38612321858882     15.54731597248761
  C   -2.26221413556507      1.09042218045761     14.86875153627070
  H   -2.82205257612550      0.32888723134888     15.40920063874386
  C   -2.93850626455258      2.04880985308259     14.10170483268323
  H   -4.02539153220019      2.03060043295476     14.03867224990921
  C   -2.22040454667461      3.02921473610745     13.40961751009510
  H   -2.74525638218404      3.76375793444771     12.80017252723469
  C   -0.44754312437275      5.46124514647355     12.89883565855919
  H   -1.29874864716029      5.71765974933528     13.52601974346154
  C   0.28238077551268      6.48514266831393     12.27316726765590
  H   -0.00569714892412      7.52876166797152     12.38538040727707
  N   1.36784722114503      6.24878549935334     11.53146333839705
  C   1.75567871018802      4.95344560456862     11.36459623256943
  C   2.91959316542618      4.75226801427021     10.55048851469497
  O   4.21837875495074      8.67221065485377      9.16450459344163
  C   4.61481690718749     10.01007330527035      9.51179819880901
  H   3.77189659070817     10.59075684032434      9.91160494633743
  H   5.38045641640966      9.91280050151053     10.28641485764966
  H   5.03508613855818     10.52880022546214      8.63806210808711
  H   3.37966890980618      8.69698077463455      8.63788458212664
