59
Coordinates from ORCA-job CAXBOT-oxo_0_4_tpss_d4_lanl2dz_631gpol_Co2.opt
  Co  2.70817104312811      7.69491026443246     10.35569970970948
  N   1.78144044153935      9.22686456653598     11.08651203643547
  C   0.75144532043284      9.72751017190530     10.39058130221483
  C   0.34433019026337      8.89252184401141      9.17656027910378
  O   1.05226777399677      7.81148791627734      9.01863951667735
  O   -0.61847302039334      9.27251278900741      8.49529507332208
  C   0.11118068738921     10.87986137618717     10.85751945247194
  H   -0.72595723888227     11.27742588459894     10.28978371847166
  C   0.57564873615111     11.46631763401552     12.04610643431607
  H   0.09704225627612     12.36767343242290     12.42681700288378
  C   1.64058303985895     10.88942453517167     12.75667144033216
  H   2.01401944297518     11.29535543654330     13.69317645464149
  C   2.23931755289580      9.73740439477667     12.23785716017576
  C   3.34900906046668      8.92105801261403     12.89855028114192
  O   3.67084450921429      7.84188583941348     12.24496483888899
  O   3.80703348856267      9.31384149425599     13.98057838968690
  N   3.55691364518567      5.99563839414329      9.80290025584971
  C   4.60143953755984      5.86862942724947      8.97954147301587
  H   4.98403858835983      6.79794362916414      8.56458311734220
  C   5.17001307441739      4.61659927045073      8.69858646564411
  H   6.04255729067346      4.56727527781484      8.05165837061808
  C   4.66129996801447      3.44646324926692      9.27254103982515
  C   5.30519739505297      2.14340074213929      8.99145404219918
  C   5.61849552032208      1.78492071065608      7.66490431890493
  H   5.33833357996707      2.45256489673612      6.85127587078001
  C   6.25308507247298      0.56976565643562      7.38980970203054
  H   6.47771038672142      0.29945303795259      6.35944868684543
  C   6.59468640859528     -0.29823474306457      8.43591073656417
  H   7.09175833706170     -1.24269279624191      8.22124458590632
  C   6.29867965120059      0.05464750417224      9.75960754140511
  H   6.57635213277672     -0.60831976348955     10.57733618893845
  C   5.65527949106376      1.26479086436735     10.03770962391766
  H   5.45316660668099      1.55091566836058     11.06870628051200
  C   3.51919693117329      3.57057427324335     10.12495733033166
  C   2.79690308773198      2.47309533847673     10.70698644495028
  H   3.10918924446595      1.45967578639427     10.46863764217894
  C   1.70731479770129      2.67710463621892     11.51768263020135
  H   1.16453237983431      1.82341342789544     11.91510750717656
  C   1.23369783946437      3.99776697570449     11.82908297776878
  C   0.10932598658262      4.29126658485096     12.66170070788088
  C   -0.62966811783913      3.24396900123842     13.40225614991178
  C   0.05088165461618      2.30465138593300     14.20423660102851
  H   1.13577092840515      2.35329741815843     14.28360964773486
  C   -0.66281864111737      1.34536607394906     14.92968711739266
  H   -0.12661701706436      0.63482036572044     15.55649826231029
  C   -2.06198845004845      1.30553532976257     14.85890351526884
  H   -2.61558652694484      0.55527325489490     15.42084678431924
  C   -2.74697491870611      2.23657630104625     14.06624149258214
  H   -3.83351911601911      2.20809064401882     14.00468102628417
  C   -2.03737946523758      3.20354901475589     13.34746942592360
  H   -2.56797309724574      3.91691722037658     12.71833685498808
  C   -0.28505951327354      5.62889606946323     12.76038389707638
  H   -1.13265460965490      5.89952729461557     13.38534541430663
  C   0.42467988401395      6.64357620564514     12.10012794467994
  H   0.12832189974315      7.68434410640049     12.18606693271597
  N   1.50272884649343      6.38942120911591     11.35472104168001
  C   1.89299813982907      5.09181532888646     11.21287789733997
  C   3.02242861657813      4.87603767048943     10.36486320196071
  O   3.75915926651702      8.57722246446202      9.47796016123438
