60
Coordinates from ORCA-job CAXBOT-OH_0_1_tpss_d4_lanl2dz_631gpol_Co2.opt
  Co  2.63800540041167      7.63747122851715     10.49804633072016
  N   1.80829717051032      9.16058987330558     11.06491710762353
  C   0.78194152888591      9.62429940766058     10.33786810933307
  C   0.47263991938629      8.71236114555474      9.16658078513385
  O   1.31897295364046      7.69635806051273      9.07783896845478
  O   -0.46982022262340      8.93692135444939      8.40666493685517
  C   0.17193996440316     10.82278265173260     10.71470806522751
  H   -0.66306890018708     11.20105904066116     10.13053296794314
  C   0.67764227859201     11.50032079113970     11.83843898668283
  H   0.22393498650817     12.44001045825407     12.14919721743950
  C   1.76803708956126     10.98282067225142     12.55898127078201
  H   2.18798763298016     11.48578279161288     13.42637801093914
  C   2.33206622987640      9.77823456019322     12.13230575756645
  C   3.49363453799472      9.00012104085018     12.71899737759961
  O   3.75886730085788      7.89823257466102     12.04333074720987
  O   4.07392454588877      9.38748290459151     13.73476863451196
  N   3.51933405454664      6.02684805618489      9.94918882342829
  C   4.58380349550724      5.94495828383285      9.14818128074711
  H   4.94607042603102      6.91290907025434      8.80242399360023
  C   5.15923233653735      4.70180952601739      8.83234636473738
  H   6.04817875090519      4.67729959170880      8.20610130865772
  C   4.63837559575197      3.50662224435740      9.34123672841536
  C   5.28514605092348      2.21540300027215      9.01394338120235
  C   5.62340477304653      1.91472986944783      7.67922694263054
  H   5.36221600459794      2.62009693489435      6.89149611587676
  C   6.25944937680104      0.71055915973816      7.36186397948651
  H   6.50414800319566      0.48649474143240      6.32487620913770
  C   6.57611840984337     -0.20610930482897      8.37366934123635
  H   7.07363289452304     -1.14235804811020      8.12618329883169
  C   6.25489631190319      0.08832746832452      9.70569704136264
  H   6.51316539851406     -0.61254578187125     10.49794182904341
  C   5.61157275174298      1.28834047331352     10.02535206127855
  H   5.39092241540652      1.52899487074360     11.06417246646213
  C   3.48271480872608      3.59262622188027     10.18158538846902
  C   2.74842147805305      2.47882531481621     10.71697941655339
  H   3.05461050231889      1.47231993395813     10.44311277187860
  C   1.65593306252196      2.65830034264341     11.53157256572132
  H   1.10699422913174      1.79244739375375     11.89269729526242
  C   1.19156445350832      3.96912727027217     11.89694132148855
  C   0.07574926751160      4.24594911349553     12.74813536177397
  C   -0.67836311547565      3.18006796521472     13.44647362073619
  C   -0.01184224988705      2.19036834791189     14.19809661375802
  H   1.07436843257489      2.21323478468146     14.27056463498904
  C   -0.73920811122987      1.21116619214980     14.88226514422257
  H   -0.21254985203283      0.46065359202087     15.46943421919565
  C   -2.13933385207402      1.20174472880952     14.82093401563797
  H   -2.70377811572746      0.43614027151340     15.35055629075675
  C   -2.81083428897066      2.18300199869938     14.07899831265311
  H   -3.89819187825256      2.17863818567915     14.02447595452982
  C   -2.08695654393621      3.16871111822000     13.40094718419251
  H   -2.60782806746159      3.92058823258659     12.80958943511255
  C   -0.29350035865439      5.58490150840401     12.91030198262885
  H   -1.12897865177745      5.84091882487664     13.55768158630480
  C   0.42774185967859      6.61732687497088     12.28821673523458
  H   0.15388844819431      7.65973133155547     12.42703388525753
  N   1.49066360633539      6.37718408627307     11.51585036592544
  C   1.85885951687819      5.07818584907728     11.32059746168075
  C   2.98474380730036      4.88686757661354     10.46332310973617
  O   3.79860155461468      8.64233496290842      9.46590242234513
  H   3.26393059166768      8.76326926535453      8.64944646379752
