38
Coordinates from ORCA-job ETOHIF-OH_1_2_tpss_d4_lanl2dz_631gpol_Fe2.opt
  Fe  2.39753500412401      2.54039979785482      0.60680310440992
  N   2.43585398219845      3.21671241004928      2.49955586612563
  N   2.19737473694376      4.40397401463587      0.10153559069259
  N   0.36582224169575      2.47335548271932      0.90035910971459
  N   2.81823294241703      0.74284791290411      1.37304961517017
  C   3.03144316203804      4.59033358350141      2.36913966603694
  H   4.11083293884936      4.44515928825803      2.24248037386234
  H   2.84847631931985      5.19180178488972      3.27039828329774
  C   2.49249232050253      5.25953142381388      1.12244223661948
  C   2.35365508841292      6.63940095352716      0.96997093654179
  H   2.58694848930285      7.30394870778030      1.79891283175357
  C   1.91733055911641      7.14700386646069     -0.26165576476502
  H   1.80415445410589      8.21970596481890     -0.40126327735821
  C   1.63116344755189      6.25945719050020     -1.30630095425102
  H   1.29711767739048      6.61795617983875     -2.27642620758283
  C   1.77991370895605      4.88844489175957     -1.08939462870072
  H   1.58494539707472      4.13521039886051     -1.84930913549595
  C   1.05147483945920      3.25593531888298      3.09183931839266
  H   0.98238914372840      4.05777221323428      3.83887654025471
  H   0.88760809099211      2.30556487752825      3.61116942114980
  C   0.00355355247151      3.42329631083920      1.99082034629023
  H   -1.00349877946484      3.23644620750281      2.38576195574841
  H   0.02441466623592      4.43255080207964      1.57000809027857
  C   3.32657360618890      2.25243426790190      3.23498396584070
  H   3.27921117919808      2.41652629288615      4.32102115853491
  H   4.34293830577927      2.44023639890114      2.87571522982266
  C   2.90805204464616      0.82522321450668      2.86373291526797
  H   3.62945763853079      0.10355839416426      3.26765795028312
  H   1.92365151925388      0.57037704163480      3.27355292195737
  N   2.08834341768460      1.86025804289086     -1.13807934562879
  C   1.74757931112377      0.76890557129032     -1.53809319982836
  S   1.26211492868185     -0.66322270832614     -2.09507221290318
  O   4.21186709627900      2.67762529835952      0.55021043438348
  H   -0.08501224141631      2.72752477445567      0.01517727352129
  H   0.04404481137318      1.52322165101032      1.11643916070689
  H   2.26398996306546     -0.06518576650547      1.06620365606358
  H   3.75719970658815      0.64169200147038      0.96377788781954
  H   4.46768472960082      3.16452594311978     -0.26111111402662
