42
Coordinates from ORCA-job ETOHIF-CH3OH_1_1_tpss_d4_lanl2dz_631gpol_Fe2.opt
  Fe  2.22905643870245      2.58265315579397      0.51844742219877
  N   2.33714455280414      3.20964559884751      2.39911986157154
  N   1.99401363340072      4.43379396257862      0.08716835801191
  N   0.27987839035284      2.41229804383796      0.81327654893227
  N   2.60979199755280      0.74106143950051      1.23424726978637
  C   2.91801353859927      4.58953741954863      2.31177998553538
  H   3.99672058235862      4.46545035909478      2.15233609554262
  H   2.76651053239129      5.15922918157950      3.24045074253209
  C   2.31504729310938      5.28639311650230      1.11260950189381
  C   2.11866828246646      6.66140740015944      1.01237930593768
  H   2.37281909712138      7.30759488806677      1.85001795995026
  C   1.59652317154267      7.19336951150987     -0.17672669019515
  H   1.43820651259547      8.26456810379818     -0.27619794753997
  C   1.28398250892052      6.32265506661266     -1.22825778848008
  H   0.88241603045864      6.69499715474653     -2.16738252679072
  C   1.49078556188473      4.95220924996537     -1.06399522915473
  H   1.27757103042832      4.21986482145183     -1.83959930135480
  C   0.95612300373161      3.21942524309386      3.01425419106592
  H   0.86991735808330      4.03805310008394      3.74127168297628
  H   0.82687562757652      2.27965218408674      3.56184672175120
  C   -0.11449656021389      3.32907090692642      1.92567260439967
  H   -1.10374232542213      3.08201769430933      2.33297526896708
  H   -0.15540976114974      4.34150264347456      1.51458291099209
  C   3.23663044858490      2.23134959956957      3.09323914134896
  H   3.23129552475621      2.37342916035076      4.18518490569546
  H   4.25039669696375      2.42131951501746      2.72200708820228
  C   2.79726972557639      0.80848588106428      2.72116006528847
  H   3.53656643539753      0.07895796905084      3.07564184799639
  H   1.84153565010905      0.55158972784942      3.19113456791312
  N   2.09572170184856      1.91973715348830     -1.36855353210166
  C   1.42251258107278      0.92225777273676     -1.48012387486302
  S   0.49923577419327     -0.41772229404170     -1.50721454391480
  O   4.24924218899842      2.92402313857457      0.13139326170375
  H   -0.20296676133460      2.67378303327665     -0.05454393118586
  H   -0.02095457540727      1.44548275122083      0.99637725854119
  H   1.89020333865176      0.04832181494472      0.97958477654474
  H   3.46042497744347      0.38823236493344      0.78426824828470
  C   5.11784623645347      1.84421618488369     -0.32948819821182
  H   6.00154381107226      2.27847112117570     -0.80786735269150
  H   5.43218035691973      1.29742078971196      0.56406114901464
  H   4.57491687731975      1.19965241704844     -1.03092973586681
  H   4.06580251408500      3.48013165357476     -0.65592809022784
