42
Coordinates from ORCA-job ETOHIF-CH3OH_1_5_tpss_d4_lanl2dz_631gpol_Fe2.opt
  Fe  2.19861238776017      2.42975267908193      0.28503348064161
  N   2.27504866464914      3.20990123367412      2.41747374339515
  N   2.07486354312555      4.55002764652292      0.02262876794110
  N   0.04450265490732      2.35575973835232      0.85961454850969
  N   2.81891512674437      0.60226058290070      1.38238897971917
  C   2.89323837817764      4.55831711635856      2.30477006601912
  H   3.96761802646361      4.40501476730259      2.13289162567501
  H   2.77684321352177      5.13891391241027      3.23357987538027
  C   2.31933841774913      5.31314771780414      1.12063872850646
  C   2.08889609495734      6.69041592949902      1.12375890014591
  H   2.28516079567527      7.27359116080750      2.02123083036130
  C   1.60346481074228      7.30121770029020     -0.04071353910155
  H   1.41596782977430      8.37250700931234     -0.06069893082760
  C   1.35858029551291      6.51300497611348     -1.17291687835185
  H   0.98064439350454      6.94922442376847     -2.09401116940717
  C   1.60429870886816      5.14060291384060     -1.10095239754899
  H   1.42724276005812      4.47168564128559     -1.94166505930248
  C   0.88880415126512      3.27483866984069      2.97909889290206
  H   0.80525318702116      4.11112607760489      3.68996267128078
  H   0.71562728766401      2.35290428268329      3.54641293818914
  C   -0.18952979372661      3.39489561893734      1.89298372841472
  H   -1.17953736098911      3.30930269971668      2.36444468133574
  H   -0.13875357759345      4.36854261224871      1.39633029178121
  C   3.13413275713300      2.25545043386326      3.17836801427336
  H   3.07832109361493      2.43664633015887      4.26383988102292
  H   4.16874922367900      2.42737447386533      2.85611389321466
  C   2.73859621616561      0.80913473867167      2.85303918262475
  H   3.38502074582466      0.11805118634791      3.41137922993765
  H   1.70633296506138      0.60544470257887      3.16024255183540
  N   1.91124460331834      1.63363619948712     -1.50078008786653
  C   1.37793446287123      0.54462465071078     -1.44698729391341
  S   0.66916276434140     -0.90189345011253     -1.28852523174149
  O   4.43360038016116      2.83263567807096      0.00450291602134
  H   -0.53145552331488      2.53608585259267      0.03152528726844
  H   -0.24289173730930      1.43009362248990      1.19532524367766
  H   2.23623514587397     -0.19154173414209      1.08683003081217
  H   3.77619951074259      0.35305877290825      1.11759723143225
  C   5.21738096140425      1.84980694769813     -0.73710987904286
  H   6.10875044414551      2.32700765735478     -1.15860253085723
  H   5.53313874061766      1.09615200087236     -0.01039937824143
  H   4.60564618502138      1.39324560465162     -1.52359178743963
  H   4.32462106481520      3.61362122157551     -0.57537204867693
