38
Coordinates from ORCA-job ETOHIF-OH_1_4_tpss_d4_lanl2dz_631gpol_Fe2.opt
  Fe  2.37762474068993      2.46288437917134      0.40055588928126
  N   2.42146538341771      3.24375317166715      2.51194626941412
  N   2.20546834204663      4.50096640764592      0.08754913051318
  N   0.36852527086494      2.39073631306306      0.87684864873362
  N   2.90784769490886      0.66200405882392      1.43524010457800
  C   3.03046195533951      4.58997037198521      2.37045703742832
  H   4.10871845137148      4.43766955013192      2.23264652073924
  H   2.87816412437712      5.20240443943130      3.27256329873147
  C   2.50180215119446      5.30263767318238      1.13902249568352
  C   2.38126378096119      6.69130544760966      1.04448901415372
  H   2.61624377796123      7.31730950551091      1.90278237292780
  C   1.96220825364886      7.25615044772799     -0.16719046115636
  H   1.86390891605543      8.33529755566151     -0.26228708981148
  C   1.67104388368886      6.41779917282005     -1.25099663943167
  H   1.34599155070156      6.82011531376460     -2.20687180662616
  C   1.80129590755080      5.03785169350789     -1.08471223318044
  H   1.59169546884761      4.32376401347494     -1.87886611350099
  C   1.03359381569413      3.28731040613685      3.05800088074480
  H   0.91390015069342      4.12513612968308      3.76080692179796
  H   0.86364062527381      2.36355548559147      3.62297715732936
  C   0.00298014607934      3.38538006240192      1.92778308072947
  H   -1.00873221008944      3.20627346636512      2.31538450416183
  H   0.01937892417113      4.37275105959342      1.45840363530799
  C   3.30102622177722      2.28426345337883      3.24129325660791
  H   3.26727780655576      2.45066147632928      4.32919433778674
  H   4.32206858892969      2.46445775775696      2.88712051119089
  C   2.90637583619687      0.83784391526458      2.90959796713853
  H   3.60200617149228      0.14979878767132      3.40886859233553
  H   1.89904585157808      0.60364556864189      3.27515804056306
  N   1.90824248129888      1.71070233633299     -1.31904335226012
  C   1.61886150324104      0.56291744455159     -1.58710445053837
  S   1.22695263730408     -0.96422559454094     -1.90849756787187
  O   4.17851017729037      2.58312835165497      0.28492989547850
  H   -0.15492393072360      2.55858241346875      0.01084977364589
  H   0.12002561987007      1.44024389491593      1.17387361688076
  H   2.41752100270143     -0.19300312952870      1.15121552581688
  H   3.86852447715442      0.59549593329638      1.07572831571653
  H   4.42692444988474      3.21297126585441     -0.42482708103947
