37
Coordinates from ORCA-job ETOHIF-oxo_1_3_tpss_d4_lanl2dz_631gpol_Fe2.opt
  Fe  2.46302756786563      2.54841861997216      0.53529432927132
  N   2.46830868754041      3.21702131079974      2.44568638609351
  N   2.17477160017507      4.42709248261384      0.07379945265714
  N   0.37395743815322      2.42668809804045      0.87930426697579
  N   2.81887804487547      0.71877917471895      1.29618632581836
  C   3.04705152220140      4.59663702248066      2.32530341007164
  H   4.12721928942099      4.47224897494734      2.17864554094207
  H   2.87261567403861      5.18332012887323      3.23773267120866
  C   2.48233627047953      5.27296242726026      1.09402101256691
  C   2.34932755583936      6.65316286683380      0.94362097922612
  H   2.59234124987435      7.31751862600983      1.76982897970122
  C   1.91271674845170      7.16101304494200     -0.28818857018382
  H   1.80665201611323      8.23451689270833     -0.42810555606053
  C   1.62347451199521      6.27714907545137     -1.33431363080871
  H   1.29641357317839      6.63855400391707     -2.30564554765949
  C   1.76588432733016      4.90465831469016     -1.11851869762141
  H   1.57922206589732      4.15066086326613     -1.87959101948746
  C   1.08706880122832      3.23565222009363      3.05139466804663
  H   1.01717314116712      4.04047386239365      3.79484684800383
  H   0.94548735307113      2.28684120205924      3.58000612708462
  C   0.01768902210818      3.37749488092250      1.96697010853181
  H   -0.97801896712048      3.18293227456696      2.38681022918297
  H   0.01662684761516      4.38410081302368      1.53946272339301
  C   3.36898197829897      2.24500950173270      3.16064094368407
  H   3.33016760264620      2.39693888589049      4.24890360912140
  H   4.38318016208897      2.43810823275202      2.79788401579139
  C   2.94690386720373      0.81692783990750      2.78806901810288
  H   3.67837405849309      0.09641132730734      3.17397559855704
  H   1.97344000312254      0.55793529839362      3.21947817973059
  N   2.05951390042861      1.87153487610748     -1.22668761399247
  C   1.63160774256301      0.75906850823432     -1.44445651899868
  S   1.02803481318044     -0.71155874823220     -1.72290073996795
  O   4.09443598516315      2.74492916141642      0.42618357913016
  H   -0.08579521015085      2.67334301161694     -0.00290663390061
  H   0.05893481834698      1.47475422921510      1.09716454351393
  H   2.18240305743575     -0.03744857934845      1.01222849577473
  H   3.72629287967981      0.50764927442147      0.86597248649925
