106
Coordinates from ORCA-job ADEGUN_0_5_tpss_d4_lanl2dz_631gpol_Co3.opt
  Co  2.55488944142207      7.70987092618351      0.46132213916712
  O   3.62257780644085      7.72408717712834     -1.15236959133592
  C   3.16963882455270      7.56094704404738     -2.35648734774053
  C   4.11831427821124      7.65655460543555     -3.44523509654509
  C   3.72163732260496      7.50652653111421     -4.76996736821517
  H   4.44910845928160      7.58476122403208     -5.57457004215586
  C   2.36662408264146      7.25218029475431     -5.08720140093168
  H   2.07305618689344      7.13726407926849     -6.12855898454538
  C   1.42864706698142      7.15216502549858     -4.07679055335851
  H   0.38332581393911      6.95615179771799     -4.31657146131337
  C   1.79063047612891      7.29897195437039     -2.70620894797284
  C   0.71653936907967      7.17480444134651     -1.76382984552249
  H   -0.26043820753232      6.98922979409897     -2.22521894143999
  N   0.79454382789391      7.26602625812295     -0.45671043393559
  C   -0.32430525556706      7.10465005403815      0.38549251860076
  C   -1.60988598073667      6.71720672320545     -0.05324513875317
  H   -1.78697720693066      6.50632089184272     -1.10527847344586
  C   -2.66547982483360      6.58376667932895      0.84691676368912
  H   -3.64547093480699      6.28056745703915      0.48188960801807
  C   -2.46883023494111      6.83357700364478      2.21296196291419
  H   -3.29228465938983      6.73197293075023      2.91744182070164
  C   -1.19971513892395      7.20330307078979      2.66273603159117
  H   -1.03164974500368      7.38644715933600      3.72308289425677
  C   -0.13019683707042      7.33138318644158      1.76948444558018
  N   1.20549384387245      7.66765753745448      2.25409516808737
  C   1.70886067058570      6.63185165818405      3.22322470400207
  H   2.75869075246626      6.89650574819237      3.41601877896290
  H   1.15412362079878      6.71127582040333      4.17397127018867
  C   1.58803332217417      5.24617363684372      2.67036689450291
  C   0.76566810666780      4.29223888351408      3.25954784434377
  H   0.18649086982462      4.57595087904618      4.13933076576503
  C   0.66609816060544      2.99260552850426      2.73204188275321
  C   1.45420258990148      2.68681894797833      1.60415929685581
  H   1.40148072955718      1.68111280124146      1.19920254701796
  C   2.29346886946635      3.60897131127040      0.96592533741132
  C   2.32881560028488      4.94155063156490      1.49249182649362
  O   3.02028453893296      5.90149815853814      0.90574559666482
  C   1.23246039437097      8.99800469798982      2.94879768141584
  H   2.29065456159751      9.17635246680108      3.19167940675134
  H   0.67273485648572      8.93419081813238      3.89826343093185
  C   0.68352895278701     10.10367488045393      2.10231720847105
  C   -0.42954637873974     10.84401590654868      2.50444665555042
  H   -0.92878069429745     10.56508538273164      3.43104598490610
  C   -0.89179551082982     11.92264464911031      1.73809063272972
  C   -0.17017016755594     12.24508140096104      0.56589719284344
  H   -0.51061359624797     13.09752347733910     -0.01773240015210
  C   0.94141831141312     11.53388469345123      0.10997598418689
  C   1.35417945189544     10.39582646547947      0.88307903546731
  O   2.34287916889271      9.61490154307724      0.48445654942523
  O   5.39627088180162      7.90588924372114     -3.03469971756895
  C   6.38907202655031      8.02536612982828     -4.05354065568447
  H   6.47815505918535      7.09434827018769     -4.63442600823708
  H   7.32520003582660      8.22264741240121     -3.52512850312372
  H   6.16215679714988      8.86039045963791     -4.73422416114661
  C   -0.30057732794268      1.98735242432971      3.36959479712824
  C   0.03575788265147      1.81815538912114      4.87249856724826
  H   -0.66436754076063      1.11225307931410      5.34301772944417
  H   -0.03558409595081      2.77246772797490      5.41085301188329
  H   1.05596024887635      1.43211495760531      5.00240103475238
  C   -0.23836016970527      0.59984075942672      2.69996789685620
  H   0.76560964346406      0.15881682247645      2.77337483987099
  H   -0.51662030795431      0.64940106305182      1.63809207357150
  H   -0.94225344838523     -0.08130537926718      3.19825971438552
  C   -1.74518351683783      2.53472516266287      3.22755025521554
  H   -2.46453673779774      1.84479864692031      3.69354610232057
  H   -2.01162993461945      2.65199007333094      2.16825347656972
  H   -1.85018471203215      3.51634453441671      3.70890551178091
  C   3.12780935126615      3.23069821956416     -0.26452111995924
  C   2.66318563128335      4.06855364273562     -1.48230181184956
  H   1.59980093689148      3.88887887878097     -1.69627073267999
  H   3.24502994224952      3.79164684701584     -2.37404200606648
  H   2.80947240481724      5.13275893077367     -1.28913163995879
  C   4.62657996202922      3.51935845182275      0.01198737044466
  H   4.78182254330548      4.57952050355228      0.23658094211536
  H   5.22440808454604      3.25604752919517     -0.87321816792984
  H   4.98626867586396      2.91884315341474      0.85982649871415
  C   2.98723229067101      1.73740408972858     -0.62464485200124
  H   3.30794005639653      1.08406320699624      0.19968592575536
  H   3.62240010872787      1.51614964418584     -1.49353646128668
  H   1.95365215144445      1.47533400253726     -0.89348760264936
  C   -2.12826348770913     12.74704793783729      2.11610530514240
  C   -2.78753375996825     12.24407153088929      3.41624621593178
  H   -3.11043787799550     11.19726544396146      3.32523251393340
  H   -3.67523675811348     12.85129823729458      3.64205123194200
  H   -2.10243251886795     12.32158878706021      4.27234161560009
  C   -3.17063041580804     12.64908741825359      0.97289243440862
  H   -2.76258940623876     13.02542424688753      0.02555598472547
  H   -4.06441205364691     13.24211445341777      1.21744946608628
  H   -3.47795818615377     11.60582823719145      0.81778579780796
  C   -1.72520523189258     14.23029694942358      2.31466266195826
  H   -0.99899177527637     14.32938162321530      3.13297434448837
  H   -2.60951170208011     14.83645236233150      2.56087621059945
  H   -1.27023544135035     14.64872076610284      1.40714036840455
  C   1.69008115208690     11.92879135556247     -1.16910975701649
  C   1.13392006676042     13.22777735253597     -1.78757030035084
  H   0.08436818205870     13.12048328340755     -2.09786175259395
  H   1.71944378625056     13.47987990251493     -2.68266352347874
  H   1.20500537722041     14.07545026912833     -1.09056874029838
  C   3.19136091144987     12.15591241567324     -0.85162084242098
  H   3.31406310181504     12.96597601842563     -0.11830353643183
  H   3.72389382679471     12.44311519248194     -1.77046918697575
  H   3.64707144609950     11.24416819220059     -0.45268008103248
  C   1.55399811118451     10.79485599475011     -2.21486097122279
  H   1.99011434508008      9.87173547694166     -1.82974708455963
  H   2.07805436806738     11.06951730054599     -3.14250758333776
  H   0.49731706197641     10.61337114017289     -2.45799693210804
