112
Coordinates from ORCA-job ADEGUN-CH3OH_0_5_tpss_d4_lanl2dz_631gpol_Co3.opt
  Co  2.56752913143479      7.67842778091927      0.45169745944816
  O   3.63371471410351      7.69223701413979     -1.19062496084255
  C   3.18885211039889      7.56881021014703     -2.40220794610487
  C   4.15406244304547      7.65333831405379     -3.47565794843159
  C   3.77131402807420      7.55408956783616     -4.80855387858665
  H   4.51117149671775      7.62389170918812     -5.60272648317230
  C   2.41068404413111      7.36480472081961     -5.14766985306599
  H   2.12564983629253      7.29019351986084     -6.19510384512895
  C   1.45693889696849      7.27540364577618     -4.15026958146288
  H   0.40758484206359      7.12847211298878     -4.40735206345627
  C   1.80719747895482      7.36887488675900     -2.77316185127645
  C   0.72215939023748      7.25187466743851     -1.84041107428479
  H   -0.25947848419869      7.11996424575158     -2.31208920602166
  N   0.80377970491691      7.28348447037750     -0.53264684341260
  C   -0.31791753999789      7.09110008241956      0.29884573011644
  C   -1.59509890253793      6.69154539596906     -0.15369104667281
  H   -1.76322475587538      6.49823347894196     -1.21069795004475
  C   -2.65119689927686      6.52021791447903      0.73951429111533
  H   -3.62505926895493      6.20945571711025      0.36431706163088
  C   -2.46229839190710      6.73853204979008      2.11235662239723
  H   -3.28607166859582      6.60534977563445      2.81124971249588
  C   -1.20018830007239      7.11465146532131      2.57609100146370
  H   -1.03651845514068      7.27315348972510      3.64109537545829
  C   -0.13121875212390      7.28258180472671      1.68923015169846
  N   1.19632424530403      7.63099998177344      2.18284883326190
  C   1.72048334778310      6.60440434912985      3.15215630155112
  H   2.78300394206431      6.85154549060343      3.28500630374689
  H   1.20958773391517      6.71484041494368      4.12429335951019
  C   1.53154330697225      5.21408634512962      2.62482680552850
  C   0.69698170376900      4.29537431908794      3.25014714246300
  H   0.17843391810973      4.59498327556034      4.16185869727980
  C   0.49902599192769      3.00861048164899      2.71588188386900
  C   1.20858265556088      2.67110432392504      1.54518692566209
  H   1.07703740956630      1.67471199077463      1.13511284307177
  C   2.06250396678304      3.55347824395414      0.87334538828459
  C   2.19737772314802      4.87763095150166      1.40856315680626
  O   2.90938727204328      5.79893587457609      0.79747652416318
  C   1.21295403589625      8.97390233847483      2.85631199917717
  H   2.27284690579378      9.17373341196887      3.06919025529588
  H   0.67341276244992      8.91054090548910      3.81751234015513
  C   0.60960457898020     10.04187135055141      1.99679309429823
  C   -0.56684412380790     10.69571862989210      2.37241416372458
  H   -1.05446499529742     10.38964569316772      3.29671637583625
  C   -1.10694103396319     11.71586382226072      1.58032456127391
  C   -0.39368255182084     12.07593754160680      0.41508680751845
  H   -0.79329344451502     12.88742127490320     -0.18937026033446
  C   0.78396441414090     11.45418176507201     -0.00900069464335
  C   1.27589619806562     10.36617140316137      0.78511696375002
  O   2.33545012556123      9.65223866164953      0.42272219127159
  O   5.43891905450306      7.84221604429952     -3.04098475395178
  C   6.44808005648454      7.94020327248253     -4.04558142791460
  H   6.50373781394457      7.01936462164252     -4.64658520422441
  H   7.38661145908607      8.08429326595488     -3.50371548979179
  H   6.26691488316279      8.79909215250117     -4.71018033087738
  C   -0.48364398768177      2.04915162875687      3.39786676815492
  C   -0.02058762040435      1.78007547231752      4.85175222824943
  H   -0.73197116743555      1.11486480875308      5.36312861443667
  H   0.04906723889469      2.71087543018378      5.43059420694605
  H   0.96819079702637      1.30151274367734      4.86098831949676
  C   -0.59402688518230      0.69703110414970      2.66512024980957
  H   0.37099714560815      0.17202018360886      2.63718784439020
  H   -0.94783351327086      0.82466108325409      1.63253156383887
  H   -1.31222120886748      0.05141991277647      3.18942154637577
  C   -1.88820728019725      2.70696771115869      3.42071174570659
  H   -2.61443491846178      2.04049452827280      3.90948678734101
  H   -2.23666676467204      2.91333963014109      2.39954551541242
  H   -1.87803213644722      3.65886205277592      3.96824143829515
  C   2.81447599718355      3.14954345439864     -0.40047201862020
  C   2.35166145596935      4.03761345345496     -1.58386513210684
  H   1.26844659457295      3.93753666886922     -1.74338071772096
  H   2.86499215485301      3.73009410846664     -2.50718936396811
  H   2.58324844864100      5.08633132203866     -1.38774120125692
  C   4.33932760026303      3.33942339412457     -0.18621151600071
  H   4.56927588952364      4.38550855200169      0.04114430759579
  H   4.88212556001854      3.04947121615478     -1.09820900849127
  H   4.69583595870755      2.70803969933499      0.64032846148888
  C   2.56413459941734      1.67510405027660     -0.77813935670174
  H   2.88281413026377      0.98671422401550      0.01801097669648
  H   3.14041274793338      1.43226386807402     -1.68171557218617
  H   1.50420034750567      1.48295244501586     -0.99900038829705
  C   -2.41114003324220     12.44429552578472      1.92702536900762
  C   -3.04909603413955     11.90581807141642      3.22347899417611
  H   -3.28780231041876     10.83592181262850      3.14027140309781
  H   -3.98461275541955     12.44476694820219      3.42945961141808
  H   -2.38509205755999     12.04543577587074      4.08835410765547
  C   -3.42582540646600     12.25245184636879      0.77118831302165
  H   -3.03432708247627     12.64913835833965     -0.17501628787753
  H   -4.36695551282412     12.77635282927280      0.99599981170705
  H   -3.64776684345236     11.18645432773629      0.62435071744353
  C   -2.12903753566466     13.95656909500421      2.11283701074361
  H   -1.41706171409901     14.12039924003676      2.93338751529901
  H   -3.05940461466246     14.49451562981511      2.34884894109733
  H   -1.70323781657754     14.40015569435895      1.20289393145167
  C   1.53772700901857     11.91963156715457     -1.26209449876316
  C   0.85637544298105     13.12670301200860     -1.93818988712595
  H   -0.15642928209515     12.88054553401131     -2.28876971553130
  H   1.44729209738636     13.42875153957360     -2.81425809582098
  H   0.78910037542994     13.99324239077268     -1.26442562381804
  C   2.97470797973672     12.34377870459872     -0.86199285423633
  H   2.94749143687247     13.17072635442458     -0.13798746846470
  H   3.52890019030782     12.68226485852459     -1.75025277600418
  H   3.51217097545975     11.50017354797438     -0.41530502374262
  C   1.61534731549171     10.76730606473299     -2.29109206203594
  H   2.15407007310948      9.91906065508726     -1.86549316473493
  H   2.14144232038652     11.10167409138029     -3.19797978895578
  H   0.60866144536703     10.43514496563205     -2.58184497712346
  O   4.34403403995205      8.36798206949501      1.58272482106531
  C   5.62114653545048      7.90555988442033      1.07212357417315
  H   5.63614802519816      7.95498721469072     -0.02207499080659
  H   6.43473406468633      8.49788878886880      1.51299139053098
  H   5.70449466718741      6.86426757755159      1.39369364290999
  H   4.15667776704485      9.27181304034807      1.23640413173740
