106
Coordinates from ORCA-job ADEGUN_0_1_tpss_d4_lanl2dz_631gpol_Co3.opt
  Co  2.36211568907082      7.66585933219978      0.52308571417976
  O   3.54644699978739      7.71852518596839     -0.89533781375162
  C   3.22426604346863      7.55545896818117     -2.13949647692925
  C   4.25745732004702      7.72870304724294     -3.13100996983806
  C   3.98067825066165      7.55403002192457     -4.47878172485373
  H   4.76620799124308      7.68880897312570     -5.21868246622677
  C   2.67517179366025      7.20025739738827     -4.91682280162683
  H   2.48934856326628      7.06969549983852     -5.98074974140561
  C   1.66275288218122      7.03000784374584     -4.00032770290081
  H   0.65668666687983      6.76401220842983     -4.32312591011457
  C   1.90728460458111      7.20555253969686     -2.60222329871872
  C   0.81863696953717      7.04394167913678     -1.71094728395686
  H   -0.13884358978391      6.78545498967092     -2.16620105506730
  N   0.83837957714252      7.19660260560885     -0.39941614846606
  C   -0.30635189701939      7.07139077619022      0.41831776837211
  C   -1.58941501739900      6.68912895508975     -0.01808053816530
  H   -1.77189462543159      6.43726936594264     -1.05960558680621
  C   -2.64121233556327      6.62601424744437      0.89712477740450
  H   -3.62896828516616      6.32756357590993      0.55067254892924
  C   -2.43882847656870      6.94272003080366      2.24861873017793
  H   -3.26593533945735      6.89611437996478      2.95382144640887
  C   -1.16398980827686      7.31272422374701      2.68749719741920
  H   -0.99114876611245      7.55192582318278      3.73501519714665
  C   -0.10979235304193      7.36639916572177      1.77582184269379
  N   1.26485889535322      7.68148167205212      2.17189765790787
  C   1.78275027601319      6.63011709498242      3.13494391176865
  H   2.84573743073253      6.87031918574912      3.27939679628088
  H   1.25450780864181      6.75043174458527      4.09248607753254
  C   1.59701117328926      5.25516917263965      2.58400771376707
  C   0.75613018733672      4.32230277048201      3.18486312856295
  H   0.18995231660492      4.61837516160186      4.06943135360262
  C   0.63101888764854      3.02741200694388      2.65635708632155
  C   1.42478301410690      2.70981915160450      1.53877320630584
  H   1.36964001120274      1.70108789482361      1.14123070174673
  C   2.27581692591326      3.62181610957897      0.89241846934894
  C   2.31398294020219      4.95489809601876      1.39939092128825
  O   3.03608669373334      5.92219767085813      0.82366010434497
  C   1.36480727529201      9.03678896036141      2.83355879577654
  H   2.44442862504555      9.21021588617077      2.96023312679979
  H   0.90288082921260      8.97459173796674      3.83042986925794
  C   0.72661169940901     10.10968845510967      2.01410271944265
  C   -0.32218838319051     10.88484494985951      2.51580085977739
  H   -0.71102363316835     10.65649755834178      3.50745469763822
  C   -0.85268504748877     11.93782449396843      1.76133649485589
  C   -0.26367729809275     12.18873153327683      0.50391869826834
  H   -0.65077831711569     13.02356312115818     -0.07616931377726
  C   0.77462451152550     11.42959494435359     -0.04882873716109
  C   1.25863048355201     10.32374219327450      0.72055990298104
  O   2.23781409649867      9.53349871547977      0.27260578280352
  O   5.47203131674284      8.06726842055919     -2.60328823254201
  C   6.53857488071159      8.26659113072281     -3.53080677536715
  H   6.74671095437122      7.34816883782990     -4.10133813628274
  H   7.40763208094134      8.52948939334510     -2.92255213772558
  H   6.30957912888314      9.08675791711005     -4.22878183719893
  C   -0.36481087090917      2.04129281149347      3.28168703391378
  C   -0.05444240537908      1.86247656158947      4.78849240952138
  H   -0.77480188469401      1.16995796375123      5.24859121361378
  H   -0.11511841990672      2.81734938224602      5.32752470147950
  H   0.95626315124640      1.45694327163695      4.93255893295511
  C   -0.32177837155115      0.65378675691191      2.61066791031609
  H   0.67184055937177      0.19223154249239      2.69795799193346
  H   -0.58214152835947      0.71134720932030      1.54461130201916
  H   -1.04709400344142     -0.01380755403499      3.09669306903535
  C   -1.79574720024292      2.61751428882209      3.12016584872070
  H   -2.53773322825919      1.94289487476076      3.57341038360190
  H   -2.04358609962969      2.74300545060321      2.05711934945511
  H   -1.88631865869914      3.60042610326040      3.60225744608376
  C   3.14476370640213      3.20417187815759     -0.30165582388227
  C   2.73676322304695      4.01985060329985     -1.55013626452284
  H   1.68251279939440      3.84067025107929     -1.80773015580213
  H   3.35491200158432      3.73128876009629     -2.41345052776699
  H   2.87747553378255      5.08471533825172     -1.36001601245109
  C   4.63362095249432      3.48886103581657      0.02640570026643
  H   4.78415543867795      4.55399951683702      0.23240863560320
  H   5.26585982540373      3.20097867004219     -0.82702960883044
  H   4.95475401421654      2.90786315809145      0.90288508335590
  C   3.00470437102729      1.70439553507780     -0.63318267163446
  H   3.28980066003274      1.06697678720451      0.21623570265320
  H   3.66901207222405      1.45902866216987     -1.47359646491807
  H   1.97917268037766      1.44399828932137     -0.93329520670592
  C   -2.02290577446409     12.80658154134689      2.24102913021329
  C   -2.53570245409866     12.37210003162292      3.62873518562231
  H   -2.89056638411453     11.33152300057329      3.61779644044375
  H   -3.37735966252871     13.01100647975589      3.93080200192188
  H   -1.75394557970471     12.46273989002206      4.39628095669092
  C   -3.19436877882230     12.68738989743059      1.23353503662817
  H   -2.89496844650399     13.01597775041623      0.22937888311437
  H   -4.04273360458574     13.30945353236476      1.55571120680420
  H   -3.53644119733379     11.64577717321558      1.15989468121168
  C   -1.57105581037396     14.28568589812838      2.32800131612398
  H   -0.74038230622520     14.39636285481831      3.03839314042692
  H   -2.40259942555721     14.92242198401982      2.66508151539789
  H   -1.23288619130744     14.65937110786407      1.35242728337589
  C   1.37928603158239     11.77071284124158     -1.41768049011302
  C   0.77688848015479     13.05710085076832     -2.01889234216019
  H   -0.30273702512420     12.95971931905336     -2.20465790969677
  H   1.26164540002739     13.26296262503207     -2.98348340482871
  H   0.93997808772797     13.92895215025822     -1.36883686172431
  C   2.91001920100001     11.97939566372864     -1.27908809806873
  H   3.12553217618941     12.80056472292055     -0.58037795790483
  H   3.33826562065330     12.24184040732665     -2.25828043426255
  H   3.39375179101226     11.06779363743198     -0.91385586763270
  C   1.10900577918893     10.60449205112144     -2.39683485876392
  H   1.54285372246094      9.68207906177362     -2.00843365725643
  H   1.55866696156161     10.81633329057910     -3.37849219406857
  H   0.02811844936016     10.45659827192192     -2.53789228973800
