30
Coordinates from ORCA-job ACPICF-OH_0_1_tpss_d4_lanl2dz_631gpol_Fe3.opt
  Cl  0.50942106374238      3.71370999704554     -1.25314120986733
  C   4.39510002202742      4.52327747701371      1.60831200800732
  C   2.04606976248229     -1.11856052546065     -0.17751055598319
  C   2.63007929238533     -0.47067142046371     -1.27482225272649
  C   2.75691315205991      0.92051361074530     -1.26398267542680
  C   3.46576392980674      5.68546593660346      1.39301305603943
  C   3.63049647069198      6.92655551189715      2.00433331337395
  C   2.71958333771545      7.94326217479410      1.69873131660130
  C   1.68317965451411      7.68406328889832      0.79206035071108
  C   1.57185330862399      6.41419647064914      0.21805120047580
  C   1.28876214597066      1.97970532329637      1.91214829579657
  C   1.75440402540031      1.02787511861871      0.84770151157249
  C   1.59552250602657     -0.35481109025249      0.90403388589375
  Fe  2.42401357107507      3.57404172108830     -0.02522432418483
  N   2.45683055311901      5.44829412591270      0.52433031710035
  N   2.33025850446605      1.63662764738252     -0.20861728304051
  O   3.39789607513344      3.74717668312949     -1.52039580810769
  O   4.06430627795355      3.44864733694338      0.89519132886338
  O   5.37256015953044      4.59343434940035      2.34570560530905
  O   1.53622158247459      3.24528141421238      1.58468492475725
  O   0.74147920421714      1.60909263145738      2.94329410742068
  H   2.98306755421745     -1.03077038954371     -2.13700019958444
  H   3.18351332351328      1.49721268090016     -2.07973840940531
  H   4.45926721695856      7.05716534778608      2.69515269502897
  H   2.81356258075604      8.92465932117670      2.15951679880895
  H   0.95866310360230      8.45073339029188      0.52954595081869
  H   0.78835921069103      6.13365604725237     -0.48065070216661
  H   1.93948070991652     -2.20140964356013     -0.17117930881668
  H   1.12298315972822     -0.78660144271551      1.78231376743560
  H   4.33035854120009      3.72173690550063     -1.19648770470478
