60
Coordinates from ORCA-job AGULUL-CH3OH_2_2_tpss_d4_lanl2dz_631gpol_Fe3.opt
  C   5.33954107556480      4.61877917196332      2.28373455553645
  H   4.83633585800174      4.34488098367621      3.20417834818646
  C   4.77713356190339      5.55571250247212      1.40783336462651
  C   3.45757238476572      6.21411619001836      1.72165027020144
  H   3.07054294806746      5.89794910336951      2.69670085834078
  H   2.71085434624935      5.95940635567395      0.95739099101964
  H   3.56010425821939      7.30736573446913      1.72740006604649
  C   5.49286242488161      5.83897136931580      0.22799292570225
  H   5.09826033983845      6.55764405118893     -0.48780226635060
  C   6.70194895871549      5.19783662316605     -0.03138673308153
  H   7.25122853257893      5.41130208434571     -0.94399994279039
  C   7.20069856663227      4.26648789038000      0.88807650426515
  C   8.43921555000990      3.51083571003366      0.74854285278053
  C   9.32715673535000      3.58054504126474     -0.33226096522549
  H   9.12597859156576      4.24781075355046     -1.16562327992221
  C   10.46564998408761      2.77680013230949     -0.33370120374572
  H   11.15563232697762      2.82058321459284     -1.17434016434864
  C   10.72355127143424      1.90322766132533      0.74165191094118
  C   11.93367539937410      1.00479459482948      0.76929204001150
  H   11.87835359966112      0.26653394664531     -0.04267443641800
  H   12.01356419335645      0.46277170375087      1.71781471362742
  H   12.85405219977700      1.58467734759563      0.62085646934373
  C   9.79175758081576      1.89150838443443      1.78887478744491
  H   9.91454375640349      1.24570709338213      2.65293967192270
  N   6.51029536954070      3.99382713073615      2.03385992586428
  N   8.68990424030578      2.67181165688026      1.79482603050262
  Cl  6.33659300173361      0.99643778202070      1.90655620392780
  Fe  7.28466216521996      2.62244729403695      3.14962166922237
  C   9.19644682765714      4.67702519251158      4.04044460064320
  H   9.72823444203423      4.38394179523117      3.14116866167866
  C   9.70113403804820      5.67718938183909      4.88165016224839
  C   10.99880878726418      6.37647443331162      4.56550082305902
  H   11.43148332373779      6.01764879500379      3.62519605776487
  H   11.73142039431782      6.21072274663753      5.36694875813292
  H   10.84450542946139      7.46066986826799      4.48386344505529
  C   8.94010701365837      5.99137484876072      6.02498169234228
  H   9.28269576874686      6.76386197769007      6.71108340809983
  C   7.74754149788217      5.31799605393385      6.28379415928869
  H   7.16312539468304      5.56409837650127      7.16593824805983
  C   7.30948119155702      4.32274043040990      5.39983473671183
  C   6.08819509661151      3.53294369267227      5.54827856559351
  C   5.17975416165483      3.63834425569327      6.60937103125273
  H   5.34590244060670      4.35868691275163      7.40560945109250
  C   4.05914280857405      2.80851380594154      6.63884206081701
  H   3.35106488096682      2.88763521980234      7.46184428673743
  C   3.84262658286016      1.87189019715608      5.60975114079033
  C   2.64673178428033      0.95426120009601      5.59629712357649
  H   2.63364416638895      0.32407772116908      6.49594841566204
  H   2.64961919125429      0.30118740990402      4.71726608556779
  H   1.71432973988005      1.53495614372888      5.59314849431774
  C   4.79384919960149      1.82471594270009      4.57840728595792
  H   4.69382297269926      1.13790811055014      3.74226989235029
  N   8.04508540463140      4.01427955423377      4.29052832993099
  N   5.88134084026743      2.62837800101994      4.54325104974869
  O   8.21320437470346      1.12961821257113      4.13460656660540
  C   8.22531756836753      0.93074043840797      5.58634334067826
  H   8.65909380403501      1.83662287289643      6.01170091380778
  H   7.21068056532000      0.76621238957185      5.96069561146167
  H   8.86505373366808      0.06932555441553      5.79805296870963
  H   7.80848735354803      0.34198695719161      3.69277746462504
