56
Coordinates from ORCA-job AGULUL-OH_2_1_tpss_d4_lanl2dz_631gpol_Fe3.opt
  C   5.39861562678173      4.51682481648837      2.34450593527334
  H   4.82915517662288      4.19368149484301      3.21019614383203
  C   4.91598208619881      5.52362833086309      1.49713424101227
  C   3.58959869443979      6.18952388691497      1.75813258801665
  H   3.14850575940993      5.85431592461278      2.70317555984758
  H   2.88190202050660      5.96024829674980      0.94944316511401
  H   3.70199001175290      7.28112492677670      1.79348074215109
  C   5.71880536566058      5.86257725747409      0.38916689174225
  H   5.39124949549962      6.63749802540937     -0.30138597585296
  C   6.92495617050824      5.20292779605070      0.16286641619386
  H   7.53488501382814      5.45837539234853     -0.69904281420394
  C   7.33776126606158      4.19887288583073      1.04937345522669
  C   8.55074074220993      3.39560905695138      0.91820510720031
  C   9.48510849437704      3.48473159296819     -0.12140556178929
  H   9.34930889337456      4.20955133161532     -0.91911827071017
  C   10.58318895853698      2.62513388257323     -0.13189855242605
  H   11.30666201626414      2.68651995723406     -0.94279552334999
  C   10.75627397614196      1.67143404450940      0.89148626483744
  C   11.91506663229565      0.70865533464895      0.90439338255779
  H   11.84332591283181      0.01674219998858      0.05342966810317
  H   11.93811797749148      0.11606430739634      1.82493265311809
  H   12.86829617656146      1.24507501978229      0.80901141275919
  C   9.78670375313553      1.64280964890587      1.90603598849783
  H   9.83648954335915      0.94522916157325      2.73729416913352
  N   6.56712126243962      3.88199432035606      2.12961665758576
  N   8.73032855140187      2.48049257591128      1.91656220235086
  Cl  6.21381229802641      1.00551722007937      1.90535102811786
  Fe  7.30605447319334      2.40776171505716      3.24395910172760
  C   9.17760301360905      4.51745562069954      4.10983625811569
  H   9.72455011784341      4.22123661517263      3.22163601579738
  C   9.66844727070086      5.52221575062612      4.95454990942110
  C   10.97030343520349      6.21963742816214      4.65448390135869
  H   11.39216276789188      5.89297091536107      3.69779571092032
  H   11.70643469488313      6.01219529073321      5.44320755975678
  H   10.82799407230915      7.30783391877363      4.61866929386709
  C   8.89655865196755      5.83083672382764      6.09203470084978
  H   9.22856411147499      6.60567464369445      6.78060429681651
  C   7.71165246450644      5.14365976763922      6.34706086653834
  H   7.12472218225179      5.37925309860582      7.23009149213930
  C   7.28685175491158      4.14380535481116      5.46121283227485
  C   6.07900462934905      3.33643672918746      5.61569641399066
  C   5.17285093541677      3.43979360256167      6.67924977639622
  H   5.33428655800077      4.16842934539806      7.46857040129914
  C   4.06380861687925      2.59552618292275      6.72401378070503
  H   3.35968298219181      2.67470690953049      7.55033596351568
  C   3.85323000771753      1.64374680809353      5.70776126475924
  C   2.67656145249941      0.70292284619875      5.71670266620103
  H   2.76962829917187     -0.01531374547718      6.54378807304867
  H   2.60307540968425      0.13850099098265      4.78118956319104
  H   1.73921800159986      1.25369208552763      5.86845836011791
  C   4.79792754245159      1.60127445864486      4.66914919106560
  H   4.69695262519418      0.90464812538804      3.84147293963415
  N   8.02955776771853      3.85385236264707      4.35465940405471
  N   5.87190132315249      2.42042212488489      4.62052203138911
  O   8.19937488139973      1.19908475868159      4.17487463258321
  H   7.61396808110705      0.49356088280788      4.53791662412556
