60
Coordinates from ORCA-job AGULUL-CH3OH_2_4_tpss_d4_lanl2dz_631gpol_Fe3.opt
  C   5.14478613434884      4.63766257880626      2.15302657649215
  H   4.62882034181459      4.38192101033588      3.07550756939038
  C   4.56449501688422      5.52282416398354      1.23193675984275
  C   3.21651753584594      6.14710698686334      1.48793883620613
  H   2.81071004562295      5.84264952794775      2.45920867500825
  H   2.50029529849429      5.85226748424753      0.70904554201742
  H   3.28491797866900      7.24301114074783      1.47014330907470
  C   5.30334978301569      5.78754324709943      0.06305704114332
  H   4.90469818719811      6.46485667731370     -0.69011858177839
  C   6.54337218624768      5.18182096071770     -0.14217385731851
  H   7.10078953721026      5.38460516072018     -1.05217897536142
  C   7.04783126004532      4.30678737265120      0.83007561778400
  C   8.32299253789820      3.58510514566558      0.71967168982688
  C   9.21909213876900      3.69904076917418     -0.35278341504479
  H   9.00076503552346      4.37255044556354     -1.17633675500781
  C   10.38727965357514      2.93855470557722     -0.36621146740692
  H   11.07340448634761      3.02354755246878     -1.20700670941666
  C   10.68074913252090      2.05698554409951      0.69265603643472
  C   11.91583772915646      1.19247922820592      0.70162978157769
  H   11.85922025520794      0.44116572519468     -0.09823511882544
  H   12.03321585800512      0.66570323200008      1.65483879281761
  H   12.81584031962966      1.79464136053661      0.52172246219803
  C   9.75416714981442      2.00385032068604      1.74165972845297
  H   9.89136087689785      1.35220339808462      2.60091148481205
  N   6.34090810027149      4.05177216761966      1.96335384093151
  N   8.62284545410715      2.74473240633013      1.75168652415010
  Cl  6.47554873189478      0.76643257023501      2.07601065651573
  Fe  7.27396690974590      2.54160514877953      3.16671663558553
  C   9.32020159348327      4.49543252902715      4.16867713642788
  H   9.87170507821628      4.17688578560451      3.28984719571343
  C   9.85015254690980      5.45643743035658      5.04055373823477
  C   11.19954804897983      6.07853973457433      4.78707064698243
  H   11.66204398331661      5.68119888109452      3.87694357384376
  H   11.87767023283420      5.88843938082277      5.62979758844811
  H   11.10886741008549      7.16788260610463      4.68085535069800
  C   9.05953879901010      5.80681365213571      6.15242185466587
  H   9.41809193340237      6.55033811282517      6.86209763505346
  C   7.81768369708854      5.20474503706153      6.35410681425557
  H   7.21633702137460      5.47718132362280      7.21680285702904
  C   7.35813170559162      4.24611391963913      5.44193360201154
  C   6.09257288369346      3.51799640646304      5.55249013268168
  C   5.14897537283341      3.69370107949968      6.57215957828662
  H   5.32299608280999      4.41782855987673      7.36313073365182
  C   3.97976749811053      2.93190610893092      6.56881025786330
  H   3.24849451941297      3.06634814097382      7.36393906401563
  C   3.74369742261877      1.99231540523705      5.54674470653817
  C   2.50336784629475      1.13653245581786      5.51075169640969
  H   2.48326499388821      0.45605916384380      6.37334743739164
  H   2.45584016748097      0.53332078664191      4.59804793377444
  H   1.60055119801050      1.75888599785176      5.56574250770869
  C   4.72756489901134      1.87385374809947      4.55355603323057
  H   4.62395003118070      1.17207801154937      3.73052248815573
  N   8.11846245859146      3.90875386302557      4.35731759627377
  N   5.86420604090209      2.60766837346100      4.55491521498672
  O   8.47775803784845      1.00577772643084      4.33507090468471
  C   8.69827806622517      0.98589679769752      5.77480489831713
  H   9.27818947390106      1.88158830620492      6.00605026710618
  H   7.74312381908599      1.00003799783318      6.31373911989504
  H   9.27367926553828      0.09407853179605      6.04318038136744
  H   8.06111019750661      0.15873811424094      4.06221837419492
