54
Coordinates from ORCA-job AGULUL_2_4_tpss_d4_lanl2dz_631gpol_Fe3.opt
  C   5.06687825941420      4.42346372910891      2.06547440777159
  H   4.55890303431412      4.20391233549357      2.99996734136828
  C   4.46106893947554      5.23709921057918      1.09783444732936
  C   3.09096154379590      5.82487336191313      1.32032802742419
  H   2.68752270578665      5.54601609486728      2.29990091817496
  H   2.39234727366535      5.47651790878249      0.54770679244027
  H   3.12523305234314      6.92083869198470      1.26020853580684
  C   5.19550283380823      5.47205741673119     -0.08064572764744
  H   4.77494990499407      6.09524761836420     -0.86781710800441
  C   6.46303501266139      4.91195551363491     -0.24807556118124
  H   7.02423450269168      5.09841083512110     -1.15928451971440
  C   6.99882134291761      4.10743969035757      0.76390874524370
  C   8.30780916799529      3.45149287308007      0.71357355828283
  C   9.20730806866035      3.50350767817467     -0.35912244718296
  H   8.96490651468371      4.07587764289899     -1.24993568025926
  C   10.41253100299822      2.80579419274097     -0.28117022370376
  H   11.10636635284147      2.83827161033351     -1.11924136013363
  C   10.73429585847378      2.04902132377002      0.86478574710812
  C   12.01062413984912      1.25458944753205      0.97065280780519
  H   12.02516075099066      0.45780779121702      0.21441252751391
  H   12.11788620980968      0.79025799243808      1.95662859262313
  H   12.88347843333522      1.89514837305131      0.78766116487396
  C   9.79453543837758      2.04985769062476      1.90355809611157
  H   9.95059233418133      1.47459517103638      2.81289055233616
  N   6.29006679412288      3.87056955669452      1.90978115421822
  N   8.62759200694843      2.73116588885798      1.82839103575658
  Cl  7.20840243726442      0.45767096753406      3.14050063101141
  Fe  7.25481580892391      2.65357588505472      3.21014825215475
  C   9.47881560437133      4.33979026034769      4.40619489112481
  H   9.97842006441005      4.14582916394468      3.46169558187643
  C   10.10346683416663      5.10794881917486      5.39857568115109
  C   11.48104984626884      5.68235153348372      5.18739123551561
  H   11.88050476057832      5.41825765263784      4.20211430721468
  H   12.17542583874819      5.31013713568466      5.95252060138286
  H   11.46042760556275      6.77735879858720      5.26915117373385
  C   9.38032248866668      5.31177907169961      6.58972254162117
  H   9.81609807862189      5.89838080915620      7.39647584393434
  C   8.10424057754861      4.76775928081749      6.74423898611496
  H   7.55089268131507      4.93081198974676      7.66469241063618
  C   7.54858795159542      4.01010928657200      5.70713650573736
  C   6.22707142553866      3.37912777329645      5.74027165263520
  C   5.33258716907152      3.41148956070071      6.81775622134915
  H   5.59064014794303      3.94492838978135      7.72811254103367
  C   4.11073049793404      2.74594582690252      6.71827073659088
  H   3.42001215018983      2.76376366009673      7.55932731871077
  C   3.76789593064597      2.04131759129473      5.54575012277751
  C   2.47368954677375      1.28045485017307      5.41418455198594
  H   2.46612948679286      0.42398456806458      6.10265428741576
  H   2.32994354410618      0.89938890119191      4.39757197038778
  H   1.61887461601614      1.91780267281194      5.67503141418876
  C   4.70453051267335      2.05915341178047      4.50405935951822
  H   4.53147934618697      1.52315149017900      3.57411719386770
  N   8.24723614698886      3.80163093849718      4.54929295855787
  N   5.88819742196051      2.70811007139897      4.60046920340922
