53
Coordinates from ORCA-job DAJHOO-oxo_1_1_tpss_d4_lanl2dz_631gpol_Co3.opt
  Co  2.68352449506771      4.61498042025727      5.51102962124844
  N   4.41662572882840      4.03755449546923      5.84583587785538
  C   3.51537822185766      5.84806918969488      4.25354699301705
  O   6.65536572915438      4.37522668483729      5.28253053722619
  N   2.19551566957201      3.09952654590775      6.77890980575760
  C   2.88965801383976      6.78806616264723      3.44262796784367
  H   1.81407435808654      6.94529438342019      3.45810773328053
  O   3.62152387582162     -0.71535080223008     10.03979548234739
  O   5.75374309142951     -0.22889323254995     10.29058320536530
  N   4.63971223303059     -0.04722557410176      9.77746268698979
  C   3.69285637577827      7.56790774698380      2.58743168490288
  H   3.21748277583180      8.30970039836033      1.94698470466710
  O   2.61597143129767      5.79611344033995      6.67902766798165
  N   2.48489150325212      3.30691216076717      3.95439843291474
  C   5.08831445860887      7.41221746464388      2.55547717320567
  H   5.68685529087145      8.02989764683122      1.88944687217979
  N   0.83563535300298      5.02837327578072      4.94610971704649
  C   5.70495572522952      6.47252546862006      3.38370225522710
  H   6.78419111390321      6.32909270054963      3.39216759606117
  C   4.90744289243939      5.69197959874931      4.23844752988327
  C   5.47017415943495      4.67703939560656      5.14450329779667
  C   4.56597045598274      3.07032671509674      6.81011723140628
  C   5.77062444722602      2.55325185807465      7.31747375021635
  H   6.71603204713252      2.94041632593664      6.95779520623297
  C   5.72798418775217      1.54740774113482      8.29382662001291
  H   6.65234578959535      1.15127719274158      8.70405839036023
  C   4.53017004674758      1.02449280010153      8.77010728755333
  C   3.26760331690723      1.50897200147785      8.29768567269483
  C   1.96967930663580      1.09927717589633      8.71645623398933
  H   1.87676902987662      0.32352697274252      9.46648083328806
  C   0.84631360104363      1.69299174128200      8.16196058202478
  H   -0.14979746873394      1.39377503038065      8.47750383819989
  C   0.99226706366801      2.69387482777088      7.18385577938267
  H   0.13396850112386      3.18091578288061      6.72839749886784
  C   3.32483928863263      2.54479630369585      7.31446701613724
  C   3.43008817769320      2.45359990732216      3.51817311234639
  H   4.37112236858928      2.46811119944864      4.05777325356299
  C   3.21805283025335      1.60063716463665      2.43282968693266
  H   4.01082574449837      0.92875948401575      2.11545924425495
  C   1.98316135848621      1.63675114199933      1.77636572080811
  H   1.78603467142900      0.98785138480297      0.92632650370393
  C   1.00173940801837      2.52301015360752      2.22733660634724
  H   0.03634788820450      2.57193672168063      1.73187060814008
  C   1.27984573254220      3.35166990736511      3.32207003365225
  C   0.34081665454812      4.32853631084117      3.88793999653263
  C   -0.95865063329495      4.56641582198787      3.41935962905540
  H   -1.34904711581520      4.00558364471210      2.57503445586812
  C   -1.74507490474671      5.53596739746929      4.04775141894844
  H   -2.75403272132394      5.73325906440946      3.69306082685571
  C   -1.21715574127748      6.24863994157035      5.13165579892924
  H   -1.79464766284814      7.01370627822507      5.64345413001644
  C   0.08381432367575      5.96804213722199      5.55344743151924
  H   0.57479751143928      6.48321229888637      6.37587875936125
