58
Coordinates from ORCA-job DAJHOO-CH3OH_1_5_tpss_d4_lanl2dz_631gpol_Co3.opt
  Co  2.63723787351669      4.54671391213748      5.31361274061067
  N   4.51171524843000      4.01759401554010      5.83376915558780
  C   3.67137825503549      5.66920716328867      3.92112939153981
  O   6.74830265578811      4.71613407377781      5.62652024638828
  N   2.32185778770300      2.97579822116113      6.78073410865531
  C   3.19953531936183      6.46311992074646      2.86262319604356
  H   2.14768154011654      6.43533273798700      2.57297085382547
  O   3.98019099246185     -1.11678874235164      9.57248716755870
  O   6.01760892402710     -0.42287684765192     10.04743564995626
  N   4.93064572189813     -0.31985825989974      9.45904988765072
  C   4.07051748770527      7.33781299414798      2.19347232528723
  H   3.69039236569525      7.98205390752019      1.40084055145234
  O   2.62593932977630      6.22367773161808      6.72559865603730
  N   2.21046734485990      3.06034098038530      3.85593423005201
  C   5.43618187279133      7.38961915599927      2.53631053067951
  H   6.10486430539671      8.05493791964047      1.99315729825028
  N   0.64578810765475      4.96731838262224      4.78701992068355
  C   5.93593333452661      6.57274514084423      3.55317970305446
  H   6.99179565261141      6.57186577221106      3.81986616756141
  C   5.05188177485849      5.71212274219082      4.22978016317123
  C   5.56792277103443      4.79176503043999      5.27463936177653
  C   4.70691921299039      3.00443680615577      6.72524140229924
  C   5.93660945850122      2.47981402389331      7.17998938999847
  H   6.86209366987306      2.92646966178589      6.83626656291093
  C   5.94967775164933      1.40663532418168      8.08000354739040
  H   6.89306486446709      1.00706672271350      8.44094773125119
  C   4.77396055399283      0.82010847260928      8.53766173710788
  C   3.48614003378406      1.30312886018595      8.13226840469555
  C   2.22144897464285      0.81652649705391      8.56650348508916
  H   2.18070875421612     -0.02144128711754      9.25225939078009
  C   1.06033193227586      1.41377652224306      8.09915036311009
  H   0.08563092149763      1.05591755953236      8.42103393755925
  C   1.14973898606569      2.48853932139041      7.19590165990937
  H   0.26141140278762      2.97403807021381      6.79582846171748
  C   3.47970605456747      2.41174108774667      7.22933765467588
  C   3.08758675606229      2.12318789050699      3.45377555518825
  H   4.02789713733933      2.09433703469196      3.99891395917979
  C   2.81813756912264      1.24965942727983      2.39895001225768
  H   3.55286912089043      0.50381883881687      2.10709357225371
  C   1.59012038503807      1.36521838274316      1.73441923741051
  H   1.34462142785291      0.70580350846105      0.90507455147423
  C   0.68095113546718      2.34197731037530      2.14623750029548
  H   -0.27268548939789      2.44443022563829      1.63624995427769
  C   1.01691205474067      3.18239392157720      3.22034934242019
  C   0.14226249215180      4.25477850901517      3.73694596464090
  C   -1.12026601880755      4.55472466415726      3.20060394946013
  H   -1.51146138819112      3.98724862189318      2.36113218971601
  C   -1.87458297229002      5.59127470561118      3.75385755395241
  H   -2.85486183797964      5.83005405831103      3.34752670746575
  C   -1.35012750746050      6.31695646780793      4.83176300453583
  H   -1.90453104326669      7.13112790655493      5.29108568206728
  C   -0.08595819902770      5.97477183803756      5.31155042599683
  H   0.38434847487883      6.50414601497689      6.13656742413866
  C   3.27249392449982      6.09933797565614      8.02506247484524
  H   4.32159124664708      5.80516316559167      7.91060021325586
  H   3.19292502130873      7.05045827409939      8.56273342584650
  H   2.72147911139615      5.32158711165787      8.55729992371891
  H   3.13116736246443      6.86658055159561      6.18158234128414
