52
Coordinates from ORCA-job DAJHOO_1_1_tpss_d4_lanl2dz_631gpol_Co3.opt
  Co  2.68800744214809      4.40204940970696      5.32532403604046
  N   4.41227060747773      4.09896760375897      5.92456990256392
  C   3.48939654592943      5.69535621798446      4.15340366172998
  O   6.66044095512986      4.65796925894325      5.55910184967734
  N   2.22267706030630      3.07685156523314      6.74487646322783
  C   2.87712299231175      6.54579497521549      3.22639173728136
  H   1.79929784728644      6.54350477289131      3.06880973602853
  O   3.62560831532940     -0.67730214620444     10.10762164414143
  O   5.77209495065227     -0.23995586056334     10.30545868591486
  N   4.65139477678987     -0.03157592019154      9.81588402825628
  C   3.66789619402180      7.43773038937694      2.47623210686375
  H   3.18687996343168      8.10548923958411      1.76236720667691
  N   2.42618715164639      3.25831945463543      3.88974676145309
  C   5.06136512019164      7.47247189446277      2.63090918212785
  H   5.65701120744211      8.16587945018429      2.04075270499545
  N   0.90150758084348      4.96589545376102      4.93972900494774
  C   5.68244660967359      6.61178878687129      3.54376695259918
  H   6.76034431948125      6.61837002077853      3.69877170194631
  C   4.89231138529256      5.72606775341570      4.28863690321671
  C   5.46855959325802      4.80013560832128      5.28855289686819
  C   4.58459285123101      3.09957994783543      6.86254166471578
  C   5.78309103649103      2.61989517623988      7.40906383136532
  H   6.72836035982228      3.04456616508978      7.09277309237262
  C   5.73772148153138      1.60253020394116      8.37641816136951
  H   6.65937243318988      1.22573670028300      8.81025949087083
  C   4.54231709204660      1.04152629761675      8.81239404201963
  C   3.28340705085963      1.49428180289824      8.29893830736195
  C   1.98317073822146      1.04811655347187      8.66920799477284
  H   1.88505718793259      0.26471003283668      9.41049336179314
  C   0.86434667872360      1.61818468828815      8.07882018958488
  H   -0.13375911239670      1.28891494281292      8.35630715057804
  C   1.01701716193018      2.62719202285001      7.11316080445969
  H   0.15823463780385      3.08529704591006      6.62835994389612
  C   3.34719214822695      2.53279196634669      7.31888275283156
  C   3.36181400278432      2.38869761948956      3.44966230471195
  H   4.30219189626829      2.38289765956433      3.98864432111210
  C   3.11537864088278      1.55614511783770      2.35775782758339
  H   3.89125520190791      0.87042704070248      2.02837150080701
  C   1.87709452397577      1.62611096633627      1.70702605718521
  H   1.66459813654067      0.98919286445130      0.85194860255589
  C   0.91482758965811      2.52724780419002      2.16978811313505
  H   -0.05489605901681      2.60110708278728      1.68503921959180
  C   1.21029377881739      3.34184614691107      3.26820161535984
  C   0.32331506815856      4.33565987519541      3.87506306413574
  C   -0.97282661062030      4.65959569099590      3.45714621980281
  H   -1.42073746769754      4.15148849896504      2.60746745658145
  C   -1.67766285639559      5.65144393449219      4.14591197053674
  H   -2.68428786969323      5.92093738186314      3.83537515837517
  C   -1.07209429290278      6.29457819141485      5.23431447056042
  H   -1.58781386828507      7.07333826065575      5.78945894468958
  C   0.22289076351157      5.92489147794661      5.60243891352907
  H   0.74601705784835      6.39536291161457      6.43145628519732
