54
Coordinates from ORCA-job DAJHOO-OH_1_4_tpss_d4_lanl2dz_631gpol_Co3.opt
  Co  2.70842300059153      4.80439876496683      5.64418881615178
  N   4.49305913086002      4.19577588720183      6.00538321213134
  C   3.58872604878996      5.87445614929806      4.27412622962124
  O   6.74760537520387      4.52702712862434      5.42938022549507
  N   2.26831968110741      3.23331328723098      6.87170228361823
  C   2.95577348072628      6.72660602830755      3.37460210991016
  H   1.87658029701248      6.84708878122090      3.35264378076346
  O   3.64276001589703     -0.95760696838501      9.65763862715252
  O   5.74607648810014     -0.45379725876623     10.07952424927958
  N   4.65606248256227     -0.24569296160539      9.52749285450518
  C   3.76215803289557      7.47263091078664      2.49363376248462
  H   3.28465428852414      8.15564450828016      1.79233468196330
  O   2.40663771547233      6.18081800364186      6.82348311791011
  N   2.45169502285522      3.33982838318338      4.01160872349088
  C   5.16228925164940      7.35644055241943      2.51102552812642
  H   5.76201722881300      7.94212852836518      1.81766405781985
  N   0.74129801511863      5.12417788308607      4.92377830662401
  C   5.78140197080793      6.49181966287286      3.41607495010391
  H   6.86320983413027      6.37432965966846      3.45797112761884
  C   4.98442083341309      5.74604887481147      4.30178522246879
  C   5.55708922033607      4.79361865156804      5.27290244025861
  C   4.64063995961348      3.12994601889501      6.86135219529028
  C   5.83650212879952      2.53326730064199      7.29821740076712
  H   6.78794842608023      2.92615300888827      6.95989113587954
  C   5.77980019058348      1.44433177415294      8.18251017816907
  H   6.69646513474646      0.98344199688265      8.53900384210262
  C   4.57149605775419      0.92135022498423      8.62810113707139
  C   3.31559797634638      1.48394446478693      8.22557345483468
  C   2.01594312773771      1.07444894664508      8.63688831571261
  H   1.91187292860006      0.23524521397293      9.31406127197238
  C   0.90184298044450      1.75124338108303      8.16380899038663
  H   -0.09705706913743      1.45682965074154      8.47489457124993
  C   1.06168868488812      2.82768437502678      7.27204188329066
  H   0.21250206858660      3.37995846725732      6.87862863906956
  C   3.38807857333328      2.59856919253563      7.33656190939101
  C   3.39838746652661      2.47455796459390      3.61108182698026
  H   4.34872026352306      2.53199707985464      4.13407636578383
  C   3.18615684821359      1.55472633173435      2.58139812473517
  H   3.98057822606851      0.87330945807464      2.28861075520351
  C   1.93940617901288      1.54255446942737      1.94593570928022
  H   1.73402543368118      0.84329235006709      1.13861263242612
  C   0.95666625468963      2.44572002094616      2.35837259187194
  H   -0.01467503830687      2.45046542526380      1.87251459956991
  C   1.24282369892314      3.34194548142678      3.40053432124410
  C   0.28355783790791      4.34617332239879      3.90852321003939
  C   -1.01086950382257      4.51685701195646      3.39429856077572
  H   -1.37158626743956      3.89403060557353      2.58089306368930
  C   -1.83701660044747      5.50505958097318      3.93606985647422
  H   -2.84171747916082      5.65021088412936      3.54530309189472
  C   -1.35311097387754      6.30213198499328      4.97969998691835
  H   -1.96184336526889      7.08385945475563      5.42646187373197
  C   -0.05460307918813      6.07993647453424      5.44639477877354
  H   0.39494230767129      6.66045036425907      6.24750116956675
  H   3.17923920805064      6.34339326176571      7.40640824835527
