44
Coordinates from ORCA-job OCINIX-oxo_2_2_tpss_d4_lanl2dz_631gpol_Mn2.opt
  Mn  4.23716208259112      9.67517523306878      0.14455304951512
  O   4.93642772030373      9.42069799896931      1.55602794326457
  N   3.51222088939815      7.79894009880271      0.13519698664956
  N   5.39126713416758      8.16133112244775     -2.09051352288957
  H   5.88909630781868      8.25469019565961     -2.98233937596898
  N   5.52218050838713      9.28072264513248     -1.30739327345267
  N   5.22035098447296     11.48397548026149      0.00140522134737
  N   3.17294180239264      9.00814438767903     -2.61114737917546
  H   2.34461694598598      8.80807742374377     -3.18247477003568
  N   2.91324360819333      9.75812335450088     -1.49934515290299
  N   2.65170500715960     10.58729947654743      0.89402459556148
  C   3.97600873034210      7.80013998278254     -2.26511431198283
  H   3.92802576075610      7.12977304712046     -3.12609362594128
  C   3.46622694847705      7.09161507386516     -1.02250415383936
  C   2.98717824173271      5.78243912800985     -1.06649452896671
  H   2.96939149141415      5.24113322698936     -2.00969672063100
  C   2.55218327471964      5.17683151922820      0.12006316925725
  H   2.18148619981920      4.15456297134800      0.11145654103160
  C   2.61482040667629      5.90581860311586      1.31213112177032
  H   2.29889801121380      5.47344421037734      2.25774985997215
  C   3.10120655769126      7.21335568783928      1.28392938999472
  H   3.19211345796777      7.81531886668507      2.18202669440805
  C   6.48140387097089     10.14916570763288     -1.48108028833483
  H   7.27296580531787      9.98966440313025     -2.21448813244656
  C   6.38403123312057     11.37066406307437     -0.71390640888745
  C   7.35001553044799     12.38333899912066     -0.74343700199189
  H   8.26221207657001     12.24796260185422     -1.31951535633525
  C   7.11604013090227     13.55630218071421     -0.01425400020824
  H   7.84857151493736     14.35976468251402     -0.01499248131100
  C   5.92671747105974     13.67201215368061      0.71106087074568
  H   5.69967767835884     14.56734415470485      1.28354873346152
  C   5.00914108283388     12.61112673822370      0.70025587975982
  H   4.08346984367266     12.66945150036339      1.26303639711150
  C   1.83357816570137     10.46567781814104     -1.32705144885704
  H   1.05794570923247     10.57398447335576     -2.08657725982635
  C   1.67757329287485     10.99292975660111      0.01269784296262
  C   0.58928821493141     11.77137754094622      0.43134705301774
  H   -0.15892524115983     12.08050242812204     -0.29453732999812
  C   0.48299240173676     12.12656724417761      1.77946039863279
  H   -0.35549878766093     12.72605468317348      2.12553510347270
  C   1.46719640691490     11.68766835890821      2.67602896225319
  H   1.41241756058332     11.92189013926972      3.73598655029832
  C   2.53976371179767     10.92874799070022      2.20110362115543
  H   3.33607025517459     10.57549264741600      2.85053053833974
