43
Coordinates from ORCA-job OCINIX_2_2_tpss_d4_lanl2dz_631gpol_Mn2.opt
  Mn  3.75908729768188     10.03732540780941     -0.45724119076440
  N   3.70182560353868      8.12062962335937     -0.01862493687313
  N   4.85582068538505      8.50873628061708     -2.66646322900596
  H   5.17384828391376      8.65796379202361     -3.62666514128928
  N   5.11312278400413      9.51388785383168     -1.77500933890168
  N   5.36141230524387     11.07726881596491      0.22144786099638
  N   2.37139742042403      8.67917361159964     -2.60499981042657
  H   2.04768271260310      8.90817218754809     -3.54811326189193
  N   2.27817130739937      9.65760273151814     -1.66016091221822
  N   2.25882282436727     10.89115817856719      0.55301245416757
  C   3.56891236965250      7.84333855602622     -2.45209666516320
  H   3.49577527517994      7.04953117763079     -3.19890504851105
  C   3.57648552136641      7.24059930480114     -1.05046164006418
  C   3.48159806772300      5.86765752974372     -0.82668939034925
  H   3.38088955944575      5.18758398475991     -1.66906632271809
  C   3.52058222261233      5.38419956618507      0.48746857428137
  H   3.44839177171013      4.31700301637768      0.68224647315096
  C   3.65763592969644      6.29500810199540      1.54149459935661
  H   3.69721671297013      5.96348533584022      2.57561834548397
  C   3.74498553609713      7.65639176544861      1.25257113293918
  H   3.85407217095474      8.40345960364835      2.03424624520116
  C   6.25661332650881     10.15821424624697     -1.77052405110902
  H   7.03364866040937      9.98438713213867     -2.51394579671692
  C   6.42288806874648     11.06748231505916     -0.66590417832943
  C   7.56174145986971     11.86478505503765     -0.48656397001295
  H   8.36567764355975     11.82561751023454     -1.21757889741229
  C   7.64087981328012     12.69708294400312      0.63333696270663
  H   8.51770793352627     13.31858264706441      0.79783496337387
  C   6.56619537234202     12.71917201530686      1.53230645022073
  H   6.58067434490755     13.35295525953338      2.41474785312967
  C   5.45434820038947     11.91208283498418      1.28486719296670
  H   4.60545745998373     11.93125447587021      1.95752290373719
  C   1.25450190141552     10.47652144816350     -1.55294439755560
  H   0.44791037252377     10.51952354293369     -2.28411089140401
  C   1.20870227697504     11.19038503187705     -0.29714410246543
  C   0.14008705765862     12.01054588509757      0.09473333678763
  H   -0.64639822815937     12.24841275801073     -0.61738834557575
  C   0.09059053576415     12.47616511897751      1.41103965905822
  H   -0.73398362801540     13.10225335908200      1.74281214911474
  C   1.10403105879962     12.09439374803494      2.30329401563122
  H   1.07827774625150     12.39303048339682      3.34775868951262
  C   2.16456575197184     11.31751816750952      1.83539601639021
  H   2.95984650932149     11.00165759614054      2.50564564055171
