45
Coordinates from ORCA-job OCINIX-OH_2_3_tpss_d4_lanl2dz_631gpol_Mn2.opt
  Mn  4.22170264007006      9.70533065160753      0.09336619588344
  O   5.02624484467368      9.44462642190676      1.65954695254427
  N   3.49472933025723      7.83529205885482      0.13036700611463
  N   5.45903669589606      8.11414909063783     -2.04269965099591
  H   5.97503949824573      8.19428191870195     -2.92570602472437
  N   5.60511932314875      9.22890474876652     -1.25100214842198
  N   5.22420163765142     11.47946931438566     -0.05688821487101
  N   3.26772078197004      9.04639888639482     -2.61057490654805
  H   2.44673465655774      8.85655417855933     -3.19619097186821
  N   2.97601140032427      9.79170738794350     -1.49561034927564
  N   2.65848732834108     10.58528545334363      0.91428060892753
  C   4.03252103899216      7.81035898187262     -2.24930922216680
  H   3.97714374597004      7.14723854636706     -3.11565021716359
  C   3.46778675093572      7.11699710380951     -1.02212147280229
  C   2.95103055188024      5.82224018434310     -1.06891915311539
  H   2.94627553254081      5.27092563518640     -2.00644147627372
  C   2.46102551634477      5.24326685271190      0.10968923702993
  H   2.06133300780783      4.23197291787122      0.09946249448673
  C   2.50305766030981      5.98390149513119      1.29651521823452
  H   2.13924835811608      5.57107175549274      2.23371023413871
  C   3.02487716387844      7.27751952350655      1.27155065822989
  H   3.09641008283246      7.89535552745947      2.16117761658421
  C   6.56289989934866     10.09726348272604     -1.43119029780557
  H   7.36075054253099      9.94019063923533     -2.15871608087326
  C   6.42969185440050     11.33960895661702     -0.69851116027897
  C   7.39631547794652     12.35151056275138     -0.70258406667895
  H   8.33995736688845     12.19935032688834     -1.22091908901276
  C   7.12222313545539     13.54729823186523     -0.02687425483097
  H   7.85573292455419     14.34978017979160     -0.01056870743023
  C   5.89179785170582     13.68943936885767      0.62205695025517
  H   5.63470196700600     14.60354577548360      1.15038144631641
  C   4.97332680987583     12.63159096751101      0.58935924414893
  H   4.01473822022633     12.70821648471877      1.09121657104613
  C   1.88346754879727     10.48832330275724     -1.32288000388703
  H   1.12545612455140     10.60106044514909     -2.09905539985396
  C   1.69469293119406     10.99713353632679      0.02147168569570
  C   0.59482675609241     11.76299342023522      0.43389036630106
  H   -0.14679574424561     12.08112905443195     -0.29496611247684
  C   0.47041026973136     12.09517182719228      1.78710642704406
  H   -0.37613547642301     12.68456101947856      2.13082606001490
  C   1.44695515528911     11.65287967326068      2.69166987456989
  H   1.37684493087039     11.88132308585222      3.75196912506855
  C   2.53172796924503     10.90635233139271      2.22104672959841
  H   3.33210092326440     10.55023007425442      2.86547678269416
  H   5.65013501494996      8.68880861836828      1.71117149642828
