45
Coordinates from ORCA-job OCINIX-OH_2_1_tpss_d4_lanl2dz_631gpol_Mn2.opt
  Mn  4.21700794684891      9.69108013973751      0.11248662577010
  O   4.98876832980251      9.41012623486217      1.68696287511938
  N   3.47382592281066      7.82375437668203      0.12460363054738
  N   5.46350933066958      8.09748283018882     -2.01834238061398
  H   5.98666014912668      8.17885337395740     -2.89711515629588
  N   5.61250929282278      9.20961142669767     -1.22205911836006
  N   5.22900758227914     11.46386748673439     -0.04600320364366
  N   3.28253187806948      9.05122030307582     -2.59833564300017
  H   2.46793630333712      8.87462262081006     -3.19676551757697
  N   2.98585594432059      9.78816627110803     -1.47952883837704
  N   2.65930611019399     10.58691374831133      0.92659540636204
  C   4.03555343950844      7.80683047646711     -2.24301001017332
  H   3.98489091307547      7.15305602706096     -3.11671971547938
  C   3.45554230092662      7.10807428230985     -1.02807909641717
  C   2.94264735518923      5.81226652206492     -1.08185822184281
  H   2.94659218185003      5.26253419389132     -2.02027364652999
  C   2.44499232700192      5.23130448352944      0.09253733177985
  H   2.04630351795973      4.21966146923741      0.07829988291706
  C   2.48016091028999      5.96940044824878      1.28112808686771
  H   2.11361004279966      5.55320524400145      2.21575220804838
  C   3.00183631601487      7.26327550600377      1.26288101169348
  H   3.07504710508117      7.87578935948303      2.15564291428779
  C   6.55753127225250     10.08680743989175     -1.43155051806790
  H   7.33607190200227      9.93630498106251     -2.18099708414139
  C   6.42649823163752     11.33176286776515     -0.70431053473815
  C   7.38432044975424     12.35225081719694     -0.72642907810178
  H   8.32063036748181     12.20637346340561     -1.25969436225610
  C   7.11121431098072     13.54749291967858     -0.04970772236379
  H   7.83753044207222     14.35667303673858     -0.04850107454785
  C   5.89077051866940     13.68020692015051      0.62032875238377
  H   5.63438878173401     14.59356163058902      1.15031103484504
  C   4.98045026766232     12.61533362429346      0.60404290594301
  H   4.02917077994336     12.68536200521880      1.12028531022005
  C   1.90113266517797     10.49983942551585     -1.31686961642498
  H   1.15491657421871     10.63003504088226     -2.10172107431506
  C   1.70362630426073     11.00381423702210      0.02808358036373
  C   0.60206834232747     11.77140361552209      0.43315117997903
  H   -0.13251610462984     12.09398613792572     -0.30084218579738
  C   0.46690677426852     12.09859911077794      1.78652738025002
  H   -0.38089166825692     12.68914204879053      2.12526297997355
  C   1.43403794026393     11.64988746905667      2.69808671723114
  H   1.35502710140554     11.87455660743440      3.75857043980331
  C   2.52099227279928     10.90262516275393      2.23340826784319
  H   3.31366068920764     10.54150889171405      2.88448126057792
  H   5.83992658478794      8.92198572215001      1.71921401625787
