86
Coordinates from ORCA-job BEFNOS-CH3OH_1_3_tpss_d4_lanl2dz_631gpol_Fe2.opt
  Br  0.60387421903941      2.11262031286443     -2.58478904070452
  Fe  2.47787282683038     -0.86456597465931      6.55022026703297
  S   2.97286303907309     -2.55997432828244      2.64457048193290
  N   0.80983279137384     -0.82224694413022      5.44895357177854
  N   3.03461443849686      0.37552686419649      5.13122676969010
  N   4.19579807277902      1.02183621570060      4.81436635248114
  N   2.77955778192113      1.17637277059639      3.09674815692153
  N   6.39782157308931      2.14251077337894      3.11623967739623
  N   3.22063244661685     -2.51925565276713      5.46986331403929
  C   -0.33207638468938     -1.49108232083079      5.73070084884823
  H   -0.35121691209571     -1.98938935494273      6.69659154443654
  C   -1.39879809377978     -1.55768884271535      4.83530073186857
  H   -2.29620719786072     -2.10414469815565      5.11409005264090
  C   -1.29124373769846     -0.92692251307576      3.58795689954798
  H   -2.10203006842564     -0.97912048945173      2.86520412531126
  C   -0.12026900205949     -0.23825126228939      3.27619200130146
  H   0.00817842566259      0.24453451264946      2.31364407357049
  C   0.90841115393296     -0.19577242852472      4.22684704109142
  C   2.18482810896012      0.46065071326555      4.10294379910316
  C   4.05133999475182      1.49329732846451      3.56987153225766
  C   5.03600049197663      2.21620612453073      2.81688846018703
  C   4.88904385887990      3.09033665236006      1.72839508537047
  H   3.95309451839341      3.37290453128798      1.26534735674223
  C   6.17309461874974      3.54924696282556      1.37380632886742
  H   6.41953951232890      4.24019245501255      0.57742087623625
  C   7.07847397073420      2.94550800025349      2.23936756165923
  H   8.15768839410970      3.01591364402366      2.29440114489802
  C   7.03771914310620      1.31582415979966      4.14087511666613
  H   6.86665410370869      1.73653336660201      5.13824539184073
  H   8.11080859984395      1.29428932718743      3.93016721100321
  H   6.63775769212032      0.29782039829936      4.10707616616791
  C   2.26506767073781      1.39361530692899      1.77161370432647
  C   1.35625065948006      2.43572509984470      1.55164379159070
  H   1.04674262762608      3.07459377441670      2.37632496769648
  C   0.85888135122584      2.64878016858307      0.26100295734489
  H   0.15308464038232      3.45075141896462      0.06525235082447
  C   1.29510885188010      1.81391692992944     -0.77416263842995
  C   2.20823369210637      0.77589171548164     -0.55854394584699
  H   2.52949955600520      0.14236927890537     -1.38005126840930
  C   2.69975737990271      0.56256324950428      0.73352038092880
  H   3.40046922663750     -0.24180367416967      0.94299422311368
  C   3.12997599449101     -2.55809403205446      4.27110104241057
  Br  5.47738897808155     -6.28608085859181     14.13177962113416
  N   4.12141753364024     -0.86085724525161      7.67080991631516
  N   1.89218109218459     -2.05561508065732      7.98895793638685
  N   0.77831924897818     -2.79916132453405      8.23640109319313
  N   2.37199254701824     -3.36210872973748      9.69148078485012
  N   -0.92516913296895     -5.07820809535933      9.16661523450956
  O   1.61475683755582      0.96763236293426      7.79302452210701
  C   5.25224001865939     -0.17241928708780      7.40347676522229
  H   5.20246438597525      0.48467698181182      6.53841618470504
  C   6.41008151285425     -0.30791235590372      8.17081106785845
  H   7.29174192619433      0.27417906741732      7.91465705013619
  C   6.41762691088078     -1.19952579315876      9.25161658327569
  H   7.30965919680438     -1.33207051387379      9.85952528428789
  C   5.26125795937025     -1.92647843701683      9.53741356280790
  H   5.23321067498943     -2.63283299429269     10.36031048186067
  C   4.12821329985157     -1.73229062972216      8.73515129905203
  C   2.85038556012217     -2.38236247839815      8.85768514221883
  C   1.06672479423514     -3.60770873104262      9.26397635292509
  C   0.19564336643251     -4.59025343472397      9.84308569007181
  C   0.24364169075934     -5.22785545896652     11.09366329186738
  H   0.98234763469543     -5.05669934538844     11.86470606835644
  C   -0.85845912559290     -6.10171291028118     11.17021648834638
  H   -1.12258399601317     -6.74366197991789     12.00115932982500
  C   -1.55392518104993     -5.99111867305964      9.97134145055993
  H   -2.44563131591709     -6.49708721804114      9.62273241378306
  C   -1.37454780028394     -4.73114322484665      7.81675876819986
  H   -0.53256472015902     -4.75658483057109      7.11887903869688
  H   -2.12281832961687     -5.46976126417908      7.51527015043471
  H   -1.81991368508533     -3.72994486429416      7.80518978495545
  C   3.10014373978752     -4.04220705343744     10.72696427803457
  C   3.67662396449385     -5.28729083469826     10.45056811140199
  H   3.57289992309533     -5.72805213388092      9.46194399993890
  C   4.38020775457383     -5.95441371406621     11.45885549998949
  H   4.83408588543611     -6.92198949164549     11.26564822073193
  C   4.48998524219086     -5.35501663290991     12.71869705281957
  C   3.91600014904294     -4.10983641747335     13.00087971869948
  H   4.01232296532321     -3.66737099300706     13.98813653324645
  C   3.20982635625152     -3.44782752123366     11.99048531599071
  H   2.74345648421437     -2.48359147609673     12.18120771502452
  C   2.50705674315280      2.08282638690784      8.02682516938518
  H   1.95433781831034      2.93723888027551      8.43787746606928
  H   3.23380960507145      1.73514406129770      8.76453332009156
  H   3.03068712455870      2.37530052925597      7.10619335333092
  H   0.89365433155627      1.27769421763835      7.20961442156719
