81
Coordinates from ORCA-job BEFNOS-oxo_1_1_tpss_d4_lanl2dz_631gpol_Fe2.opt
  Br  0.46984832906429      2.13842821903355     -2.46287543289331
  Fe  2.42512597242021     -0.68390903586334      6.68222483359866
  S   2.84264225108265     -3.00391871986303      2.88623641563209
  N   0.77659210967380     -0.70227871251373      5.55131193924606
  N   3.05822189347106      0.41242208128864      5.18587000100454
  N   4.21161792886091      1.04963374195784      4.87515570706856
  N   2.81254148942605      1.15664088694893      3.14185806024607
  N   6.13729164197901      2.87617927016773      3.48912771513597
  N   3.04332080975599     -2.26153231115790      5.60531781187676
  C   -0.40073656299147     -1.24590643557669      5.90068957008791
  H   -0.43503115336337     -1.69772215265361      6.88748317951580
  C   -1.49860812198419     -1.24798407073668      5.03457169198116
  H   -2.43320357062022     -1.69816409762990      5.35865039568066
  C   -1.37269160604828     -0.66670180340094      3.76949933174789
  H   -2.20928513118811     -0.65776805311246      3.07475308710314
  C   -0.15492040250129     -0.08916913990181      3.40316942444379
  H   -0.02271059653556      0.37548893809774      2.43235353868772
  C   0.90164350923274     -0.11872932050839      4.32020360889730
  C   2.21363062388308      0.46602468957927      4.16157786545301
  C   4.07339103294044      1.50877265887990      3.62135984210437
  C   5.05130553609250      2.24663217769214      2.87513650536562
  C   5.16066556194846      2.47146918224803      1.49265154555457
  H   4.48937863372540      2.09456253260913      0.73357873309809
  C   6.32153582882309      3.23880901708905      1.27544472388052
  H   6.70303565963103      3.58388451552745      0.32272300353736
  C   6.89642753571778      3.47536823394893      2.51897303380584
  H   7.78592731021175      4.02913327984544      2.79254355414095
  C   6.44790476614159      2.92959455332002      4.91838634305314
  H   5.55955033346688      3.21511319746625      5.48955636925055
  H   7.23152909980960      3.67907676233019      5.06134190756267
  H   6.80264196546120      1.95466431286442      5.27123343974141
  C   2.26270736533380      1.39266869023431      1.83377835805522
  C   1.75274927076408      2.65781003258114      1.52093746801221
  H   1.77654664867429      3.45566742358913      2.25944706668403
  C   1.22269618102567      2.88053541176451      0.24572746939831
  H   0.82229679895664      3.85370355102067     -0.02289146132261
  C   1.21673127307338      1.82791929004737     -0.67732111375891
  C   1.72528759729883      0.56150165387077     -0.36603883972351
  H   1.70922984653619     -0.23794297920151     -1.10116776978878
  C   2.25969073207385      0.34183969777057      0.90847882458243
  H   2.66260121839781     -0.62965056667645      1.19049018251093
  C   2.96743936998838     -2.58711245757394      4.45177635358361
  Br  5.46880591512848     -6.29841681583885     14.09916724253251
  N   4.14115063032246     -0.82255778150638      7.71324905500962
  N   1.86603171967652     -1.98340476212959      8.04184143408528
  N   0.73580565686154     -2.67776165862141      8.30689645998904
  N   2.34943003761500     -3.32475568725579      9.70318705843578
  N   -1.09367024592960     -4.80417689347699      9.32429280155882
  O   1.91297849281498      0.62307039924703      7.55545110213642
  C   5.26168778748478     -0.13124053638427      7.45550111191181
  H   5.20296816690401      0.56337583263115      6.62172192326723
  C   6.43276600307253     -0.31899045323628      8.19874803754070
  H   7.31898513689399      0.26085384965847      7.95487177181048
  C   6.43975554306240     -1.25462851693453      9.23614215635705
  H   7.33740975051900     -1.42629896863347      9.82579721032201
  C   5.27398239458088     -1.97474670346698      9.51366527649462
  H   5.24565786028452     -2.70749929677050     10.31277815969554
  C   4.13606553749367     -1.72997319159759      8.73602956710201
  C   2.83800108032290     -2.35267098843845      8.86734510414786
  C   1.02089097828250     -3.51200505672074      9.31944558043888
  C   0.12375301339776     -4.45698844013173      9.91757909507958
  C   0.22724929678386     -5.18133839227666     11.11810942994566
  H   1.04393515964476     -5.13005705418469     11.82440460785470
  C   -0.93468452508175     -5.96539445042948     11.24606835134078
  H   -1.17726179491223     -6.63966050974924     12.05768751207606
  C   -1.72413534374688     -5.71471767241626     10.12904458112583
  H   -2.68660308168785     -6.11811796500531      9.83995398739640
  C   -1.64204116720807     -4.31936816585588      8.05599051239384
  H   -0.89896910570921     -4.41609901298241      7.25874879377086
  H   -2.51716241002883     -4.93072093404250      7.81794647695427
  H   -1.94003671478703     -3.26883369676254      8.14442122833370
  C   3.08008455931781     -4.01885878341572     10.72888972834958
  C   3.65164154970858     -5.26276434378845     10.43706024541761
  H   3.54052994777334     -5.69494254232205      9.44537161516118
  C   4.35919195523434     -5.94034821330149     11.43569437707626
  H   4.80984529974728     -6.90721107281133     11.23151819729031
  C   4.47637616607753     -5.35266840359634     12.70079937786087
  C   3.90604774615233     -4.10877082688977     12.99723115882481
  H   4.00844471114479     -3.67530059641723     13.98786594104371
  C   3.19684772041399     -3.43514876190825     11.99679410748100
  H   2.73438559266456     -2.47131707764013     12.19836533854461
