86
Coordinates from ORCA-job BEFNOS-CH3OH_1_5_tpss_d4_lanl2dz_631gpol_Fe2.opt
  Br  0.35443487398172      2.85996449631434     -2.44393321188602
  Fe  2.66017623673477     -1.26419812056666      6.26826340447809
  S   3.22980772141832     -2.39584267363302      2.09243539507762
  N   0.77529734102798     -0.89422021038279      5.18220824840661
  N   3.11855508230275      0.37494628504896      4.96096131260271
  N   4.25214959551809      1.07410889953442      4.65413166991263
  N   2.76863184970954      1.32212545430495      3.00676464862652
  N   6.35834179451130      2.37648502756542      2.96210601741416
  N   3.27374691953906     -2.56392383039022      4.91374742226266
  C   -0.33836704477923     -1.63239529498936      5.34667921469067
  H   -0.39174497058857     -2.18677897246092      6.28260496312233
  C   -1.34146546858963     -1.70184266429619      4.37500808251648
  H   -2.22546097151582     -2.31135376750371      4.54462937609184
  C   -1.16895286259845     -0.98565583546913      3.18525493814082
  H   -1.92002956847581     -1.02801226834347      2.39950031834572
  C   -0.01234699950953     -0.22270892206516      2.99707886496349
  H   0.14774641048943      0.31710183783740      2.07101057099064
  C   0.94530501641983     -0.19292285513195      4.02120627935865
  C   2.22690204336300      0.51332218438055      3.97913753486031
  C   4.04773178532866      1.64198490522019      3.45768589945265
  C   4.98418573241850      2.45130528698440      2.72787948550640
  C   4.77737544192772      3.42216288544016      1.73582891120520
  H   3.81812649915956      3.73252304192195      1.34358362772697
  C   6.03837089400701      3.93742057477160      1.37326662072092
  H   6.23931354105206      4.70628820753295      0.63778931501735
  C   6.98921333679099      3.27120512784318      2.13777471340178
  H   8.06874768167711      3.35556018908042      2.15440870725726
  C   7.05295445823382      1.46290401236147      3.87119877001556
  H   6.89104877408021      1.75874770617933      4.91321578554881
  H   8.12002561047277      1.50440037188373      3.63444934601326
  H   6.68598371145685      0.44160394011702      3.72929848042374
  C   2.19764299797138      1.67876125679229      1.73694570066949
  C   1.25739489910187      2.71446972446465      1.67306068019545
  H   0.96261303037242      3.24099198642097      2.57843117984114
  C   0.70710075212674      3.06495784851137      0.43512848314752
  H   -0.02434436729189      3.86454529509146      0.36142602634580
  C   1.12277497943766      2.37092319452995     -0.70713682822234
  C   2.06859947697836      1.34146049164755     -0.64876028038170
  H   2.37464935991687      0.81981058935580     -1.55084852594485
  C   2.61374305587332      0.99184916106576      0.59098086968089
  H   3.34414450546332      0.19148274211644      0.67692098878374
  C   3.26904149472932     -2.51009006937654      3.71025975289762
  Br  5.13331917560257     -5.50891526265678     14.92253491713002
  N   4.35775565561759     -1.27963659625980      7.62008359819751
  N   2.02545309771368     -2.55009900040742      7.84185985294739
  N   0.88301446811824     -3.21974647045073      8.16374700563871
  N   2.39948413409342     -3.54304459245895      9.76716304602001
  N   -0.94777504372826     -5.21683994730977      9.42705382503090
  O   1.81625094618254      0.36645998653467      7.64988009818274
  C   5.53026277761600     -0.67992647901603      7.35369535628324
  H   5.52545456726365     -0.01736582589404      6.48900570293966
  C   6.67124902972002     -0.88794594456784      8.13731686808051
  H   7.60242230359824     -0.38367987542503      7.89184679295809
  C   6.58007473752272     -1.75517628879849      9.23111389178107
  H   7.44710988631615     -1.94596319197192      9.86001431979874
  C   5.36509668412853     -2.38986063710084      9.51404545907890
  H   5.28327382803257     -3.07688217523034     10.34933871694581
  C   4.26509739249089     -2.12947673684953      8.68321380641858
  C   2.93681504299725     -2.73010928567343      8.79400298701666
  C   1.10473463195700     -3.83493624714410      9.33392012005342
  C   0.17543066250232     -4.66536332745424     10.04828293376958
  C   0.14604684948332     -5.05915794561234     11.39631605415436
  H   0.86463447599808     -4.78078937165876     12.15508182214510
  C   -1.00437010727919     -5.85058777801546     11.58576706616762
  H   -1.33056634745847     -6.31242755642201     12.50919149653843
  C   -1.65217455688958     -5.93289975903267     10.35861243098418
  H   -2.55792304751668     -6.45211710233023     10.07101465485839
  C   -1.33386964128891     -5.10462893703565      8.01836282819400
  H   -0.47780609985321     -5.32184230010874      7.37318857943142
  H   -2.12910224091632     -5.83256917999458      7.83363167208886
  H   -1.69513841257984     -4.09462851510193      7.79747245684535
  C   3.03747775064670     -4.00212673510458     10.96908296536082
  C   3.54251469974349     -5.30691020802718     11.02091896177545
  H   3.44727574611775     -5.96158194770963     10.15803133017177
  C   4.16211920554142     -5.75594218952402     12.19192655939544
  H   4.55974083393427     -6.76479857302854     12.25293154015811
  C   4.26108703022867     -4.88432307219909     13.28257430813272
  C   3.75540438479489     -3.57992913669266     13.23838752534093
  H   3.84010554742823     -2.92478523358630     14.10056646490888
  C   3.13254789703962     -3.13701089736033     12.06643357368610
  H   2.72037415537033     -2.13220776629819     12.00375066938545
  C   2.62429626845629      1.52819552564116      7.96592528044871
  H   2.00047949978529      2.30446940525527      8.42582799440636
  H   3.36881587074504      1.18562878517988      8.68777706445505
  H   3.12865641805892      1.91562235541002      7.07195849354378
  H   1.07319519242057      0.65004879178206      7.07853614987030
