46
Coordinates from ORCA-job AWETIG_2_3_tpss_d4_lanl2dz_631gpol_Fe2.opt
  Fe  5.90920294531920      4.40320306307934     11.24777690107926
  N   5.90920786422649      6.51239788635911     11.21602175359491
  N   4.45905072919172      4.41613300361733      9.90983549948572
  N   3.48868442916235      5.37646014349836     10.04670832970538
  N   4.45933984152866      4.47021009435746     12.58933431775991
  N   3.48632762072690      5.42035013431418     12.41456782420084
  C   3.51554668980440      6.25630942632951     11.21545433854329
  H   2.59583690331803      6.84469894627383     11.20335864770838
  C   4.74187751679522      7.17051073343180     11.20022574333726
  C   4.69259385149652      8.56663645591919     11.17183408095721
  H   3.74442805842340      9.09919308272742     11.16037679486245
  C   5.90920726004519      9.26699283974842     11.15870782580249
  H   5.90920726856140     10.35436678506266     11.13740512219772
  C   4.12233368252269      3.72041699619861      8.80691542168634
  H   4.72706504162477      2.88222431816050      8.48714306943581
  C   2.94007327486414      4.22533241381236      8.23610795692507
  H   2.43134518046639      3.86661509214632      7.35118983991598
  C   2.55662602159829      5.27778704501902      9.05158173750884
  H   1.71501547662322      5.95739974200726      9.00206335608037
  C   4.11989301421063      3.81139916525876     13.71350345068150
  H   4.72594570709838      2.98708585440569     14.06482377452080
  C   2.93294165135263      4.33165156409321     14.26086944038554
  H   2.42186099594805      4.00177136538918     15.15532391334588
  C   2.54932495660212      5.35303991915071     13.40797727865211
  H   1.70546924050443      6.03081572864989     13.42915596447717
  N   7.35935504791235      4.41617163216731      9.90982813077023
  N   8.32973851600514      5.37647330078574     10.04672823142978
  N   7.35906315106604      4.47020253234404     12.58932889781442
  N   8.33207944978285      5.42033999073122     12.41458539168717
  C   8.30287128176307      6.25631096862986     11.21548170637955
  H   9.22258102422515      6.84470090782409     11.20339884268510
  C   7.07653868097986      7.17051117927941     11.20024359906091
  C   7.12582126431314      8.56663713653600     11.17185214617913
  H   8.07398701040453      9.09919457227782     11.16040920483831
  C   7.69604263520597      3.72049392961163      8.80687301990056
  H   7.09128922446075      2.88232628757768      8.48707174100036
  C   8.87830732320052      4.22541111057103      8.23607134355970
  H   9.38702036459606      3.86671831848882      7.35113266137764
  C   9.26177881328642      5.27783089361462      9.05158261653155
  H   10.10339947215085      5.95743411423535      9.00207828453818
  C   7.69849979631400      3.81137015852717     13.71348929250161
  H   7.09244447317149      2.98705068858926     14.06478936107617
  C   8.88544706684918      4.33161247193026     14.26087426616919
  H   9.39651906799019      4.00171696257634     15.15532770865368
  C   9.26907558036383      5.35301096664985     13.40799867330214
  H   10.11293553394288      6.03078007804193     13.42919249769346
