52
Coordinates from ORCA-job AWETIG-CH3OH_2_5_tpss_d4_lanl2dz_631gpol_Fe2.opt
  Fe  5.93798043468486      4.43318370372576     11.26559665909296
  O   5.94954114062706      2.32399868833519     11.20932347755306
  N   5.91267090771410      6.60506346551498     11.21611787454038
  N   4.33335933104942      4.56951689003373      9.82699864137945
  N   3.38906056505954      5.53579773208368     10.04413529025882
  N   4.34915928168790      4.65542143833491     12.71306996547759
  N   3.39918044780652      5.60313505969470     12.44399214749649
  C   3.48307689914544      6.40105674184853     11.21990778161465
  H   2.60042083634404      7.04411888714228     11.20576653220759
  C   4.74153699302710      7.26632839896989     11.19281184670795
  C   4.67794327387324      8.66224074078796     11.14882988234052
  H   3.72054669206190      9.17799005142688     11.13042450656764
  C   5.87905539285725      9.38308190983955     11.12904936474588
  H   5.86581607007696     10.46997125517250     11.09470221504148
  C   3.92604372456071      3.92516105757857      8.71818499171630
  H   4.51492362263568      3.10216028366065      8.33265190379562
  C   2.72569098965514      4.46800854962125      8.22166853659640
  H   2.16822524003455      4.15761628886355      7.34799136764986
  C   2.40288351411374      5.49215155689445      9.09791540922407
  H   1.56829671556531      6.18170647281095      9.12281062069126
  C   3.95911404525873      4.08776844608018     13.86931197841229
  H   4.55422467827430      3.29364366391936     14.30273601942122
  C   2.76528164285253      4.66162243094769     14.34515672579479
  H   2.22069771592620      4.41009408714952     15.24547208813788
  C   2.42871351327283      5.62446370365366     13.40663120938111
  H   1.59344319849021      6.31108615448955     13.34737671084628
  N   7.53295254091955      4.62127447007574      9.82278917878993
  N   8.46057947913922      5.60128861554100     10.04774404464993
  N   7.52904580189250      4.68025464985945     12.70967287226848
  N   8.44917383495295      5.65923580157481     12.44780319342410
  C   8.34609856168581      6.45968760019000     11.22683084607810
  H   9.21321966401954      7.12362040834172     11.21563175382431
  C   7.06734531884570      7.29476900659215     11.19828086522567
  C   7.09732899197990      8.69186172043643     11.15446156663404
  H   8.04202192608299      9.23063170154203     11.14067954839785
  C   7.94841417124038      3.99440672402340      8.70700993563257
  H   7.37402228239793      3.16376534416218      8.31657452078139
  C   9.13777530857106      4.56313400057250      8.21338477344191
  H   9.69857720857016      4.27111344495310      7.33551051986466
  C   9.44407878077508      5.58532028387194      9.09819911438142
  H   10.26532635330875      6.29055800772854      9.12722313022358
  C   7.93663742640683      4.11740879663177     13.86192323940142
  H   7.36689594677535      3.30172776572191     14.28917510891927
  C   9.11237877786156      4.72419845541988     14.34217674422207
  H   9.66416007847845      4.48373734117122     15.24114276363519
  C   9.41939506730738      5.70308921197200     13.41028156587523
  H   10.23314875497803      6.41549081320643     13.35576821701422
  C   7.07858475275797      1.40775273478291     11.34942806507920
  H   7.97095428220618      2.03219513952290     11.28142862267779
  H   7.03733533701187      0.90396449548185     12.32138741971380
  H   7.06307844928017      0.67308146115135     10.53750792489936
  H   5.10836403589920      1.82653434689258     11.24221071825235
