52
Coordinates from ORCA-job AWETIG-CH3OH_2_3_tpss_d4_lanl2dz_631gpol_Fe2.opt
  Fe  5.94297466584108      4.52526001548101     11.27448397234453
  O   5.94411984653402      2.33075863599649     11.25767177014022
  N   5.91580141972020      6.71602398201517     11.20650344629214
  N   4.47811411954901      4.58605132638594      9.93257635180004
  N   3.50975386248805      5.54693701054951     10.05468032602912
  N   4.47680684391960      4.67231630782240     12.61815329232011
  N   3.50490748020295      5.61836481227943     12.42538693369933
  C   3.52818889728173      6.43804861854132     11.21372253103800
  H   2.60206849378902      7.01638224237047     11.19491252801990
  C   4.74436704048452      7.36338009435375     11.19129754724474
  C   4.67483817907328      8.75917729651065     11.16271539954648
  H   3.71929700639626      9.27871148114500     11.15034309658578
  C   5.88118312288265      9.47608347345840     11.15068167628939
  H   5.86746307078958     10.56334421668841     11.12860152132421
  C   4.15552328231691      3.89232921702527      8.82574952335251
  H   4.76797881301754      3.05519956116880      8.51919456955500
  C   2.98387599552454      4.40173279420280      8.23480948813533
  H   2.48782101578504      4.04737928127004      7.34112355276448
  C   2.59149830021753      5.45450981497459      9.04507820843181
  H   1.75307513958724      6.13687888823365      8.98474001041927
  C   4.15644948050927      4.06362556403291     13.77506229143662
  H   4.77079866439316      3.25372139543799     14.14466978140445
  C   2.98431769889996      4.61297255245547     14.32751104630888
  H   2.48917775183829      4.32475736078689     15.24515242387943
  C   2.59000790978554      5.60216034444370     13.44134576724682
  H   1.75111550569468      6.28648985472647     13.45163438673596
  N   7.40335519940677      4.63466994812845      9.92153828650958
  N   8.35131997086290      5.61402364821351     10.05484537738967
  N   7.40008211912493      4.70301316073882     12.61274279293942
  N   8.34979771224828      5.67239069787301     12.42543162853933
  C   8.30914662080496      6.49767538909706     11.21857376247393
  H   9.22105661437111      7.09832905464857     11.20517413308459
  C   7.07051601937172      7.39284232883807     11.19585968542104
  C   7.10520696783385      8.78997071700917     11.16773370444822
  H   8.04753148616793      9.33317283416387     11.15946602779706
  C   7.73099637779976      3.97204633674644      8.79724887921187
  H   7.13617804346669      3.12682173077711      8.47905584271846
  C   8.88478144439495      4.52042843957253      8.20625441992253
  H   9.38102714426180      4.19527483301432      7.30163702092690
  C   9.25980903399300      5.56626456343980      9.03379115918073
  H   10.08060333452174      6.27020564023540      8.97928497913682
  C   7.73218124375584      4.09774120817080     13.76817035783284
  H   7.13644072155145      3.27239720212352     14.13348045045366
  C   8.89023608664966      4.67217201261929     14.32462541318678
  H   9.38993571927118      4.39221153279165     15.24235039759668
  C   9.26314280011066      5.67355819430101     13.44297792777863
  H   10.08569745856525      6.37734012269010     13.45716114760622
  C   7.05481892021526      1.39287921525437     11.35154455052605
  H   7.95942076902739      2.00242733815571     11.30303575060933
  H   7.01890518031611      0.84818924566876     12.30220142427712
  H   7.03065314820103      0.68823457943592     10.51239538919583
  H   5.09941625718380      1.83961388393591     11.29847804889152
