48
Coordinates from ORCA-job AWETIG-OH_2_4_tpss_d4_lanl2dz_631gpol_Fe2.opt
  Fe  5.87860657261306      4.38700092245313     11.28305277658157
  O   5.88850002663027      2.62185755106277     11.49246047314412
  N   5.88027781572145      6.42432036040961     11.22548785911033
  N   4.38688082004290      4.35758770891070      9.96937383561207
  N   3.41449742648958      5.31678948647915     10.04583303320821
  N   4.31939391149311      4.70751969549495     12.79818243318878
  N   3.30354555905579      5.54468121946085     12.43021612458180
  C   3.43525522730731      6.26018430430580     11.16961766265892
  H   2.56418642761636      6.90875946425457     11.05851686213788
  C   4.70891263920826      7.09717616713072     11.16745906145453
  C   4.65773356575995      8.49205884027860     11.13906564347230
  H   3.70079028955520      9.00647162997193     11.09463938302942
  C   5.85766051732011      9.21223502131402     11.17092312839072
  H   5.84890523330408     10.29942598036131     11.15091560650792
  C   4.04341503960368      3.56349157571579      8.93461466369943
  H   4.67210698917353      2.72245330640774      8.66978536327816
  C   2.84992017418967      4.01024494627336      8.34498112927771
  H   2.33316832060569      3.58315980616156      7.49565681798937
  C   2.46543532295770      5.12128692912879      9.08499894659080
  H   1.60585287883153      5.77510173185343      9.00322202198115
  C   3.90760252133589      4.12761195400002     13.93745793345944
  H   4.54614699105639      3.40781433712190     14.43343132986101
  C   2.62999858439454      4.59514987666797     14.30900878647289
  H   2.05311988594806      4.31763544791874     15.18140966725751
  C   2.26378925561099      5.49392989906036     13.31977815040854
  H   1.37293907959286      6.09436581076065     13.18276413693587
  N   7.44171218491973      4.64759470540831      9.72955926482990
  N   8.44530624456444      5.52432355291973     10.03937286314697
  N   7.44635686790458      4.42080295722034     12.51641046229969
  N   8.38301957536982      5.41463420571203     12.43151821209922
  C   8.32687960558876      6.30134932085163     11.26862877565473
  H   9.18775681169035      6.97018172036735     11.32579850689175
  C   7.04118818537388      7.11652392012906     11.25074237411418
  C   7.06819174221851      8.51300850331457     11.22585789094265
  H   8.01697271294382      9.04363116288103     11.24715648357645
  C   7.88502213422697      3.96663978258708      8.66091057154989
  H   7.26549473857992      3.19834526418513      8.21698273530232
  C   9.17104771899270      4.40086328950435      8.27820846816371
  H   9.76891043867189      4.04551540647197      7.44933822043000
  C   9.50947529205667      5.38838771863599      9.18814588581886
  H   10.39542970860069      6.00259620742154      9.29110201120629
  C   7.89937607947649      3.54793152801712     13.43091915976204
  H   7.31371825198839      2.66743363322411     13.65936566197167
  C   9.14007287145537      3.97599835972103     13.94153312536302
  H   9.73889908094826      3.49491014394034     14.70352861327081
  C   9.43775817889260      5.14801618365829     13.26438157586192
  H   10.29258365948642      5.81110270919860     13.31461348933352
  H   5.02778684063134      2.22852575167158     11.22317281811914
