47
Coordinates from ORCA-job AWETIG-oxo_2_5_tpss_d4_lanl2dz_631gpol_Fe2.opt
  Fe  5.90919999101058      4.36589894828660     11.23436574084196
  O   5.90920009145829      2.73552266847925     11.25758131288064
  N   5.90919997664308      6.45102009068268     11.20355355250708
  N   4.35854455401113      4.51105579598547      9.83590951798441
  N   3.38368204171335      5.45263360823932     10.02721875934073
  N   4.36625018159558      4.55836634881675     12.64043781464406
  N   3.39049541715379      5.49306107470240     12.42179752482330
  C   3.46714272216201      6.30679826966370     11.21008650096352
  H   2.59701709162090      6.96586484872299     11.20147563526043
  C   4.74403060011314      7.13451736908663     11.19359642752959
  C   4.70343917510285      8.53041182447576     11.17171140336440
  H   3.74972550343371      9.05235722554684     11.16417223276735
  C   5.90919999158608      9.24049452571864     11.16012213505045
  H   5.90919998589295     10.32770871114703     11.14287442138605
  C   3.92050304657446      3.72761636070890      8.83545224317286
  H   4.52229830929389      2.89112066191637      8.50519492373802
  C   2.66511288252149      4.16512873092568      8.37340245944767
  H   2.07532001970653      3.74490391863257      7.56952515594358
  C   2.33788122721101      5.25357980794811      9.16782850989671
  H   1.46715310963205      5.89733166798843      9.18379011890522
  C   3.93503527771764      3.81316641366356     13.67243529532700
  H   4.53846027334952      2.98856827615090     14.02857792526019
  C   2.68338987624375      4.26880361740754     14.12751734327614
  H   2.09921122977373      3.87890877452569     14.95054021526801
  C   2.35126989716440      5.32764588691204     13.29610728841286
  H   1.48115329074073      5.97153721396162     13.26282337398844
  N   7.45985541912809      4.51105578252153      9.83590963996282
  N   8.43471788885896      5.45263362183328     10.02721887030402
  N   7.45214978992281      4.55836643226008     12.64043797731342
  N   8.42790457197930      5.49306112240140     12.42179765155417
  C   8.35125722869867      6.30679828561448     11.21008660395447
  H   9.22138284332074      6.96586488312200     11.20147569828819
  C   7.07436935788940      7.13451736443606     11.19359652372515
  C   7.11496079459744      8.53041180834520     11.17171150223099
  H   8.06867449080015      9.05235716301303     11.16417237806972
  C   7.89789695834568      3.72761632419375      8.83545240373437
  H   7.29610175464687      2.89112057394889      8.50519510738084
  C   9.15328704399884      4.16512879521955      8.37340254466909
  H   9.74307987829545      3.74490401112492      7.56952521327069
  C   9.48051868040013      5.25357987302493      9.16782859538138
  H   10.35124674685097      5.89733179825452      9.18379016691622
  C   7.88336477252592      3.81316639315424     13.67243535214982
  H   7.27993976128900      2.98856827548850     14.02857800635134
  C   9.13501025670871      4.26880348184704     14.12751729849259
  H   9.71918894318369      3.87890853396825     14.95054009193198
  C   9.46713020696614      5.32764577932334     13.29610726427028
  H   10.33724684816616      5.97153705660930     13.26282327806737
