52
Coordinates from ORCA-job AJIMAI-OH_1_2_tpss_d4_lanl2dz_631gpol_Mn3.opt
  Br  4.77179060164311     10.59977816180242      4.62283098775085
  Mn  10.24750655802331      7.41581178465558      1.56104126827111
  O   9.42322267433852      5.99098388731338      0.90003959922864
  O   11.81491351941183      6.54354922214701      1.94378683700306
  O   10.88462462061164      7.98887773197932     -0.07459431869930
  O   11.03804273044053      9.11539992560220      2.42638037802172
  N   9.51172707520611      7.04600186309111      3.33501787543556
  N   8.60428409442138      8.51311405184895      1.39631935961758
  N   7.86796056570367      7.79908324567691      4.88861806935536
  N   12.84033326087354     10.50709331421949      2.61193814109394
  C   8.39944587911631      7.84515071185326      3.66541016517659
  C   7.91596907085025      8.65596609538038      2.61513871976468
  C   6.82601071843038      9.49535939004806      2.88023315948593
  H   6.42394239730930     10.17372075880121      2.13332425038540
  C   6.27930580896244      9.44482160776104      4.16419815737098
  C   6.81143983846426      8.58666940884221      5.14044938887631
  H   6.38900385093478      8.54507850377104      6.14161726967246
  C   11.06467694082362      5.27389046266336      3.88086724249345
  C   11.98156557722372      5.54829031980103      2.80548188867139
  C   13.14588903767871      4.75504381528015      2.68213841841027
  H   13.83502030891136      4.98024608120158      1.87188681580182
  C   13.38145727543315      3.70680181170634      3.56680681236108
  H   14.27346784391928      3.09567207748680      3.44214450922901
  C   12.48404062576584      3.42610883635279      4.62140090738295
  H   12.68439688900016      2.60644493462656      5.30667788459010
  C   11.35103815192101      4.21129144149920      4.77808358618079
  H   10.65610284613008      4.02073766905441      5.59472676367379
  C   9.92167479963037      6.08664861762888      4.13477062338891
  H   9.35090558006286      5.92755958272771      5.05305580427257
  C   8.79906919728112      8.82522321992224     -1.00543984999740
  C   10.16446683188358      8.38618266297838     -1.11482322522037
  C   10.78550959678775      8.40571974531690     -2.38530799545459
  H   11.82042816391382      8.07884700839522     -2.45309972259215
  C   10.07802117152856      8.81345379397371     -3.51262630174776
  H   10.57138382888829      8.80399606031760     -4.48277685577010
  C   8.73352026174596      9.23571607586002     -3.41619905272119
  H   8.19344945195036      9.55272596491527     -4.30461859049756
  C   8.11308793912405      9.24784304633470     -2.17586920096374
  H   7.08026823911151      9.58178416875374     -2.08176986542548
  C   8.11930079364799      8.91967156763984      0.24462894170239
  H   7.12043649431034      9.36481650177434      0.22885626001855
  C   12.16657499321036      9.51828710899034      2.02052181811931
  H   12.64172271868403      9.06358447244337      1.14411520992074
  C   12.30659161132828     11.18765526868719      3.79953645054690
  H   12.15782900432854     12.25128344662284      3.57602680947401
  H   13.02070077413834     11.08879509052870      4.62610152432351
  H   11.35579672548353     10.72297039219177      4.06608257978208
  C   14.13984542873595     10.95463883202558      2.09821342829645
  H   14.40810971213892     10.36144263691013      1.21878124858840
  H   14.90751066777475     10.82645698332550      2.87130909260397
  H   14.08388165447659     12.01410496211594      1.81899690141385
  H   9.99304559828517      5.57101567515391      0.21607983133308
