51
Coordinates from ORCA-job AJIMAI-oxo_1_1_tpss_d4_lanl2dz_631gpol_Mn3.opt
  Br  4.25285201222754      9.98528556261440      4.46093911608816
  Mn  9.85231280380644      7.00062190762571      1.46377456595691
  O   8.93065084080802      5.80101998530328      1.04765655673713
  O   11.48671377985136      6.21091763027055      1.74355982311450
  O   10.61257348260252      7.52520156341351     -0.12868546418603
  O   10.85812632116388      8.84458842463167      2.25308287468741
  N   9.38694553214950      6.95600731564280      3.36007316444047
  N   8.41435606340051      8.35584414354375      1.38360956936617
  N   7.67437536316867      7.61942542583070      4.87356138134597
  N   12.78869479258492     10.07656022806253      2.30337456454210
  C   8.21261693025012      7.67855565294065      3.65278589497034
  C   7.67430058640023      8.41783967116045      2.57858197678625
  C   6.47341975495036      9.11018912094140      2.79705171366256
  H   5.97832973137930      9.67521670962933      2.01304814013297
  C   5.91731591203279      9.04191405960499      4.07413097272198
  C   6.53959717626467      8.29680003717242      5.09109848498816
  H   6.11211103690947      8.24280256799713      6.08952431740499
  C   11.20892747415573      5.53476015897711      4.07545248614296
  C   11.90074546678025      5.54955957151467      2.81702773494200
  C   13.11383327654678      4.83140885756216      2.69695818203431
  H   13.62518174432276      4.85024785948744      1.73788877758776
  C   13.61149296561208      4.10530789065925      3.77516316543847
  H   14.53840426948468      3.54710503117624      3.65722627702674
  C   12.93762075654571      4.08577920848791      5.01680508758601
  H   13.34233142238060      3.51752962143205      5.85031973213977
  C   11.75795450034919      4.80088694209349      5.16130801406920
  H   11.22783146414354      4.80665079835990      6.11267109189991
  C   10.01365233744017      6.27300061618618      4.29175798028668
  H   9.57342621541351      6.29358867955603      5.29190553562266
  C   8.91351247975281      9.11670203108484     -0.86926721797531
  C   10.09894067928503      8.32695186515846     -1.05033014189212
  C   10.79146101845771      8.41205171400216     -2.28161939102223
  H   11.68533187760591      7.80579284769098     -2.40464573063452
  C   10.32119346746899      9.23349610897777     -3.30146787672252
  H   10.86363174586549      9.27382065836379     -4.24418725822204
  C   9.15915983541740     10.01892380172106     -3.12942243952965
  H   8.80756264467495     10.66085003101308     -3.93292593612900
  C   8.47601216812029      9.96341264961608     -1.92454540411140
  H   7.58219763111013     10.56707294837278     -1.77041121693696
  C   8.17332456907847      9.12330764155043      0.34604006633947
  H   7.34967683811933      9.83904754525208      0.41159970618218
  C   12.04646760686411      9.04192383139122      1.88547458736225
  H   12.54265677709042      8.35595941112222      1.18765139948307
  C   12.24943308774106     11.06552660212221      3.24347665285244
  H   12.23853208518076     12.05660172760034      2.77239894142244
  H   12.88030042087501     11.10165591826942      4.14036493474850
  H   11.23409401567422     10.76635085254004      3.51091067398383
  C   14.16625132022038     10.26008001709056      1.83700151194023
  H   14.42606255157216      9.45268596274857      1.14526335980557
  H   14.85578313873500     10.24170575089063      2.69055960424872
  H   14.26162002796423     11.22376484154289      1.32072945727041
