56
Coordinates from ORCA-job AJIMAI-CH3OH_1_1_tpss_d4_lanl2dz_631gpol_Mn3.opt
  Br  4.22964823780526      9.94862261590485      4.42488562205988
  Mn  10.18322324875575      7.43410331554379      1.62058111714048
  O   9.14754242867439      5.86957987624865      0.85381566670475
  O   11.66063032282972      6.33854222019459      1.89604849713752
  O   10.76109125593109      7.84352444398732     -0.10267169069332
  O   11.13876283664808      8.97908521311946      2.35947428920611
  N   9.48027024544307      7.08054796054539      3.40208137719891
  N   8.56067741497217      8.53076777000159      1.45702486600790
  N   7.65303605153304      7.58347562761625      4.85602618308025
  N   13.08120374379674     10.17589011042697      2.40812543108998
  C   8.25460633827364      7.73122135915426      3.67334162243439
  C   7.75512346623543      8.52142679497220      2.61470210289999
  C   6.54395121256961      9.19761879317321      2.82436928121234
  H   6.08959816066281      9.82735709347412      2.06566816821150
  C   5.92261579314737      9.03707355047682      4.06402702698468
  C   6.49434752839416      8.22902414875557      5.05777905133902
  H   6.01447171726516      8.09972716989575      6.02497320001349
  C   11.33637588375173      5.74338687029006      4.22863239905475
  C   12.07937743148927      5.73506961793492      2.99428305046658
  C   13.31025482084548      5.03267651982824      2.94791034113056
  H   13.85799833723773      5.02636410643001      2.00804249313162
  C   13.79159721827484      4.37355631246817      4.07195630194862
  H   14.73964025423945      3.84154232376100      4.01231119243638
  C   13.07054154054858      4.38083377448204      5.29082797742210
  H   13.46175435319130      3.85907319061969      6.16065945698955
  C   11.86429326332649      5.05434991266055      5.35955330586930
  H   11.29105853420797      5.06908408756333      6.28599427253497
  C   10.08780656979729      6.40379058195335      4.36686585894974
  H   9.57468010123296      6.36322314283091      5.33058935288745
  C   8.97060523993640      9.31499565113980     -0.81940004030196
  C   10.21523760224700      8.61936951026130     -1.01913488475682
  C   10.88327798842644      8.76837491229886     -2.26156975040250
  H   11.81993145208512      8.23312743414752     -2.40206758139241
  C   10.34806537805707      9.56713408069013     -3.26299464379900
  H   10.87814216198328      9.66312764245844     -4.20908639739894
  C   9.12385794905023     10.25461712198086     -3.07519718260277
  H   8.71697904850333     10.87455599628752     -3.87009368747830
  C   8.45372333805348     10.12516258601581     -1.87273525975482
  H   7.50960500160964     10.64489560478555     -1.71017233029313
  C   8.22447104407759      9.23068647959419      0.38551979475241
  H   7.29281261081084      9.80045069505141      0.41228364641887
  C   12.31644264778272      9.19598953860170      1.93155961594546
  H   12.74593187306851      8.57463108202269      1.14047637250629
  C   12.60516549571252     11.06862582220643      3.47449809034519
  H   12.60122236874265     12.10236672292498      3.10807750551208
  H   13.27822970453966     10.99270476085313      4.33700320069111
  H   11.59563389307733     10.76535369336021      3.75680073569934
  C   14.43314601246223     10.40293232339259      1.88303863856884
  H   14.65048863762559      9.66492851090891      1.10525686174292
  H   15.16486844414315     10.30412735989986      2.69411693521468
  H   14.49984712249460     11.41175006950267      1.45757105913389
  C   9.87212021013949      4.88733420191004      0.04332342804120
  H   10.40608205970077      5.47489831793382     -0.70284370310829
  H   10.57870704970325      4.32881045243221      0.66397220931770
  H   9.13559551330265      4.22758520506363     -0.42583113261912
  H   8.67043184158311      5.40555571996202      1.57231068516842
