51
Coordinates from ORCA-job AJIMAI-oxo_1_3_tpss_d4_lanl2dz_631gpol_Mn3.opt
  Br  4.95394774434904     10.78697363805687      4.66353758871434
  Mn  10.23504487574089      7.37149820193987      1.50667301350643
  O   9.45039985792400      6.13910474350415      0.81222498645259
  O   11.80477605803101      6.54955650734866      1.94665253690561
  O   10.91479864486408      8.09023968070839     -0.05775783645556
  O   11.05201779244420      9.10812768892877      2.48717431029731
  N   9.51075447745214      7.02534805526278      3.30562565189401
  N   8.62930641840232      8.53154238231427      1.37629061311410
  N   7.92577504969140      7.85118147791308      4.87982903986835
  N   12.80425931548487     10.56216101529390      2.71346983023314
  C   8.44131706922040      7.87637036602111      3.64967338705582
  C   7.97723223456512      8.70950221745565      2.60825159703085
  C   6.92795789271070      9.59395602428154      2.88790186419457
  H   6.54655437638987     10.28871683568303      2.14515197871681
  C   6.39953388184572      9.56672995055364      4.18050592460377
  C   6.90916106639548      8.68466523924281      5.14782854648177
  H   6.50116013214688      8.66061656571879      6.15556955846152
  C   11.03622317861488      5.23120366233990      3.83743375499274
  C   11.96702839432035      5.53486067433106      2.78262377149579
  C   13.14403600370916      4.75917737848165      2.65903237330971
  H   13.84309576568400      5.01153623074319      1.86597513390210
  C   13.36600301354022      3.68530103532228      3.51462083937591
  H   14.26131002484550      3.07983443861759      3.38672162729416
  C   12.45203540298066      3.37122042673973      4.54621408875280
  H   12.64536631389730      2.53262711151482      5.21030096522567
  C   11.31430189061748      4.14875512355300      4.71168530192171
  H   10.61121147367601      3.93504728845244      5.51535642868592
  C   9.91132987687040      6.06492589555746      4.10646522306017
  H   9.35826787977536      5.93311849624403      5.03977446134882
  C   8.79145386541181      8.73866784834247     -1.03342430723450
  C   10.17890408312573      8.36119672704959     -1.12451315305492
  C   10.80072849162579      8.34449686462455     -2.39458692480699
  H   11.85086950828043      8.06863849371015     -2.44667237383154
  C   10.06795253798428      8.64207983278614     -3.53839420763280
  H   10.55619617066048      8.59533925343520     -4.51004941177245
  C   8.70241037743779      9.00220845083915     -3.46059019883951
  H   8.14657540028084      9.23542440173763     -4.36514145352780
  C   8.08379159171025      9.06445450366280     -2.22174673259450
  H   7.03736506399117      9.35696293205459     -2.14340415115498
  C   8.13229243892649      8.90823283124265      0.22000474443415
  H   7.14752564179780      9.38364954799488      0.20742530110382
  C   12.13593493420530      9.59766886222861      2.06959983205479
  H   12.58819435716563      9.24902105269870      1.13306094198985
  C   12.30687720692210     11.11285358630547      3.97991748451301
  H   12.08437608511187     12.18032998066803      3.85648240150918
  H   13.07287510714741     10.99243955506154      4.75586207889245
  H   11.40129235154019     10.57053751646200      4.25836436296829
  C   14.05367585021462     11.11023258975065      2.17591899944942
  H   14.29960492503223     10.60176338833227      1.23855500379397
  H   14.86720457557412     10.95703030412973      2.89607184054710
  H   13.93959332966351     12.18517312475811      1.98675336275291
