56
Coordinates from ORCA-job AJIMAI-CH3OH_1_5_tpss_d4_lanl2dz_631gpol_Mn3.opt
  Br  4.69893910175090     10.50730680563431      4.59061395757043
  Mn  10.37495340087968      7.49377924607918      1.66349035667386
  O   9.15398654528208      5.77045634268294      0.64960556912691
  O   11.80085040248423      6.33779656722028      1.97713112617281
  O   10.97093464688422      7.94200826786309     -0.04996975659553
  O   11.35414175020561      9.23293518331101      2.60558360880815
  N   9.56071310234118      7.06094770327606      3.42140366636424
  N   8.70071715116480      8.58055455570313      1.46715020137898
  N   7.82597231098071      7.74746413712556      4.90774938403512
  N   13.04351446678662     10.78311282207096      2.63143467526033
  C   8.41177907570553      7.83248753531197      3.71055121848094
  C   7.96001619855636      8.66774283523226      2.66234072087958
  C   6.84808483827486      9.48622426155688      2.91110252543461
  H   6.46550384125230     10.18142633168274      2.16970385250181
  C   6.24802089036314      9.39264906557630      4.16711628370951
  C   6.75088181230192      8.51389073157743      5.14008656153575
  H   6.28687150135479      8.43503826628395      6.12045289921515
  C   11.21990684230532      5.44379087497857      4.16330962128474
  C   12.05327195844608      5.52854948296019      2.99100681901362
  C   13.20596173641483      4.71021850626316      2.92568834246862
  H   13.83154554283976      4.78024350510924      2.03908694294487
  C   13.52211869954703      3.84773365096230      3.97054394144023
  H   14.41429897683468      3.22834512120324      3.89393392783658
  C   12.71209295443267      3.76191044115414      5.12764422118282
  H   12.97831379267882      3.08323838461999      5.93386158227152
  C   11.58110385865263      4.55308789717541      5.21677304004810
  H   10.94107936710388      4.50710581743341      6.09721529551370
  C   10.04893495462778      6.22658627351914      4.32514684524417
  H   9.49465786651520      6.15170666884338      5.26431670932301
  C   8.98544471285578      9.06339473111673     -0.90762737205786
  C   10.30289938541520      8.49967777921271     -1.04814965826005
  C   10.92409825747196      8.55452905378181     -2.31774402490822
  H   11.91997531104893      8.12849961060048     -2.41521744303254
  C   10.27277703638377      9.12900934228025     -3.40502786852818
  H   10.77277037234252      9.15047783564159     -4.37192560109674
  C   8.97701292467786      9.68005169033843     -3.27731339879536
  H   8.48171040980476     10.12410311148054     -4.13689895299451
  C   8.35170349596257      9.64639089146910     -2.04362310721275
  H   7.35440155338859     10.06807270472402     -1.92036365168667
  C   8.28113510594708      9.09389649512682      0.32692076764847
  H   7.30439923962318      9.58564378845081      0.31199392642936
  C   12.32063634988726      9.81448772015795      2.04951803880419
  H   12.63134454298177      9.55120687091825      1.02843234681725
  C   12.74485863218167     11.22890483690352      3.99683995622028
  H   12.48219395452951     12.29435092017701      3.98849812486412
  H   13.62661441836613     11.08070423789850      4.63283569121838
  H   11.90717502823154     10.63833283356549      4.37294938123808
  C   14.15674567936996     11.42995083314508      1.93162408073894
  H   14.26121271828821     10.99390480712193      0.93301235561790
  H   15.08868778569494     11.27905351393606      2.49119258594005
  H   13.96585903081624     12.50673216087362      1.83832325920073
  C   9.92105817711358      4.81389631546645     -0.13178043017969
  H   10.58268889205904      5.41312554047338     -0.75962616617977
  H   10.52052713211287      4.16438688642101      0.51735318373453
  H   9.24446182622640      4.21925498540432     -0.75693366100561
  H   8.58524044024983      5.27425322090306      1.27122349834080
