50
Coordinates from ORCA-job AJIMAI_1_1_tpss_d4_lanl2dz_631gpol_Mn3.opt
  Br  4.11071988118277      9.85269671783613      4.35719036229090
  Mn  10.15304144460682      7.43901237155756      1.62339529864987
  O   11.45712104594634      6.15923681619336      1.82761064017436
  O   10.56711754652683      7.59640567922452     -0.16593381701313
  O   11.12796558983928      9.00204354114031      2.28547771516755
  N   9.36878244110684      6.99138404225787      3.36197758521027
  N   8.43955599176286      8.40768551394963      1.39821542633068
  N   7.54573958812489      7.51179427676090      4.81439864360854
  N   13.07617745363752     10.19394051594545      2.30888783905696
  C   8.14427247988584      7.64410329043723      3.62780681688024
  C   7.63683127151333      8.41579538815836      2.56000727857336
  C   6.42208356676956      9.08884262988244      2.75990398313030
  H   5.95930446324811      9.70041615176186      1.99144733061187
  C   5.80556283546216      8.94548238892560      4.00324152998935
  C   6.38564906544946      8.15406954081009      5.00793890014582
  H   5.90771561869387      8.03657476759737      5.97763070922286
  C   11.14400356309075      5.53232107911195      4.15098552583250
  C   11.86592770615863      5.50816694634041      2.90607565072479
  C   13.04467120420640      4.73139208549039      2.81647670005949
  H   13.57069860681113      4.70735677810113      1.86508922759577
  C   13.50026988592948      4.01625994294358      3.91888967962362
  H   14.41016892170127      3.42524228684811      3.83013654072613
  C   12.80021007087998      4.03730106609950      5.14889356223447
  H   13.16996135334583      3.46718388235388      5.99739585448389
  C   11.63737723109605      4.78052534689426      5.25574367039973
  H   11.07498776996001      4.79921629217773      6.18842481819916
  C   9.92711799979566      6.24355032712948      4.30379387215619
  H   9.39174842060772      6.17624960139509      5.25392601146145
  C   8.82624861306921      9.11534603407144     -0.90599605092074
  C   10.04006750069211      8.36916374344656     -1.10311794083200
  C   10.68889148401901      8.44348878201832     -2.35814148321927
  H   11.59605474328646      7.86055196472635     -2.49841573107916
  C   10.16567178204779      9.23301426634327     -3.37645956924130
  H   10.68076929725545      9.27668148667329     -4.33445190459099
  C   8.97342032096538      9.97237124462314     -3.19179271034982
  H   8.57601457902132     10.57968354198294     -4.00102756598989
  C   8.31578700107736      9.90588711717049     -1.97577466165991
  H   7.38988741726230     10.45848852291736     -1.81864366742501
  C   8.08987495068741      9.07181487122849      0.30791930461133
  H   7.15419728592338      9.63565509490794      0.32210383452046
  C   12.29120203320410      9.23844181504196      1.82083476949555
  H   12.68984911382626      8.65396792494938      0.98530963293711
  C   12.64643898295181     11.03706950863240      3.43506215164315
  H   12.58193026512148     12.08054361541312      3.10369015084723
  H   13.38308826898348     10.95807497529909      4.24311251239657
  H   11.67029762934172     10.69025018270273      3.77835423533410
  C   14.40332185064501     10.45208447237418      1.73256719992128
  H   14.58914096880623      9.75002593230439      0.91447647363470
  H   15.16926081737812     10.32253473379809      2.50643609403117
  H   14.44480207709417     11.47911090205005      1.35022757040820
