50
Coordinates from ORCA-job AJIMAI_1_5_tpss_d4_lanl2dz_631gpol_Mn3.opt
  Br  4.21717560526121     10.02980448504938      4.37548257672712
  Mn  10.19557996190585      7.45051311645222      1.65237323787065
  O   11.52521574105220      6.18819712331059      1.88991732443258
  O   10.68568372843339      7.72996832028432     -0.11821027690114
  O   11.29185015938360      9.11002651035092      2.41459594220336
  N   9.36717801061594      6.97559363638466      3.37678911392436
  N   8.46720983424495      8.42394064173924      1.39327913073905
  N   7.54987641257624      7.54235218342699      4.81250929218280
  N   13.16671229096194     10.42780014904918      2.34917418612819
  C   8.15773833141195      7.66438328049427      3.63045120071823
  C   7.67620779127686      8.45587313451981      2.56444016568520
  C   6.49290221191878      9.18030942644100      2.77187934990221
  H   6.06756024164385      9.82966119813532      2.01266920447458
  C   5.86679594132969      9.04858172672013      4.01166769889837
  C   6.41183664965626      8.22260341707587      5.00812582754815
  H   5.92822359679769      8.11374771509915      5.97603360770616
  C   11.06158566734535      5.40755381875967      4.14307334192730
  C   11.84579888788894      5.44285816289513      2.93721910438870
  C   13.00430838146817      4.63781286523436      2.85889696554362
  H   13.58424477244305      4.66101744463971      1.93965716769534
  C   13.37710981762891      3.83645414312847      3.93423310222354
  H   14.27369903650542      3.22441257765030      3.85135077476953
  C   12.61606148031734      3.79815801047735      5.12650999743582
  H   12.92552704593958      3.16337334159082      5.95278943121003
  C   11.47319534033258      4.57142982518227      5.22217200495073
  H   10.86486124216863      4.55439659062835      6.12557710017472
  C   9.86748675822991      6.15410020203257      4.28860443876204
  H   9.29335718102368      6.05559064008028      5.21306199368705
  C   8.79995106340845      9.00905974695466     -0.95587216025692
  C   10.08308860263174      8.37620396969509     -1.10392555412656
  C   10.72712566400090      8.43896804644295     -2.36064713590463
  H   11.69052703199339      7.94608833034943     -2.46616139768280
  C   10.12894906286671      9.10297961129333     -3.42728473538774
  H   10.64285946622941      9.13503417328821     -4.38652258257122
  C   8.86742370307863      9.72913003237632     -3.29193826138508
  H   8.41597276190813     10.24049634025779     -4.13813597006669
  C   8.21613058422118      9.67615282112335     -2.07301152921637
  H   7.24135195642071     10.14647313014000     -1.94685148967008
  C   8.07270821918640      8.98592652416524      0.26187625576947
  H   7.09385728585942      9.47114841707610      0.24644889856518
  C   12.34608246639621      9.50261174231033      1.84099791088404
  H   12.64657069763859      9.09167634329399      0.86793341671601
  C   12.89028530758621     11.05746225296748      3.64655515697709
  H   12.78657565749647     12.14135441521400      3.51284038924104
  H   13.72097180239806     10.85650695909443      4.33429289362469
  H   11.96392999907696     10.63702648791071      4.04270270611783
  C   14.37677786646539     10.84688350311173      1.63330653929697
  H   14.45328521775261     10.29379311828643      0.69205681859793
  H   15.26186563130651     10.64085760442910      2.24803438379198
  H   14.32972783231487     11.92215274338606      1.42028244167735
