16
Center, direct neighbour rings
N    10.774351    8.418228   12.788008
N    10.600153    8.466700   15.446529
C     6.805287   10.297056   13.914981
N     8.086639   10.995944   13.990325
N     7.740080    8.466700   12.596938
C    11.534946   10.297056   14.128486
C     9.868741   12.336515   14.049029
Fe    9.170117    8.375111   14.021733
C     6.786277    9.433308   12.678638
N    10.253594   10.995944   14.053142
C    11.553956    9.433308   15.364829
C     9.170117   10.188559   14.021733
C     8.471492   12.336515   13.994438
C    11.720462    9.378073   12.953277
C     6.619771    9.378073   15.090190
N     7.565882    8.418228   15.255459
