36
Center, aromatic rings
C     8.470316   14.678356   13.986212
C     6.652393    7.662414   10.608470
C    11.687840    7.662414   17.434997
C    12.876449    9.403436   12.187691
C     9.869917   14.678356   14.057255
C     5.463784    9.403436   15.855776
C     7.313343    7.455847   16.164067
C    11.026890    7.455847   11.879400
C     6.619771    9.378073   15.090190
C     5.728149    8.678903   10.690170
C    12.191437    7.396949   11.128209
N     7.740080    8.466700   12.596938
C    11.534946   10.297056   14.128486
C     6.148796    7.396949   16.915258
C    11.553956    9.433308   15.364829
C     7.740548   13.511099   13.959103
N     7.565882    8.418228   15.255459
C     6.805287   10.297056   13.914981
N     8.086639   10.995944   13.990325
C     5.220946    8.407238   16.775602
C     9.868741   12.336515   14.049029
C     7.643142    7.604643   11.576904
C    10.599685   13.511099   14.084364
C     6.786277    9.433308   12.678638
C     5.790779    9.564913   11.734882
C    12.549454    9.564913   16.308585
N    10.774351    8.418228   12.788008
N    10.600153    8.466700   15.446529
Fe    9.170117    8.375111   14.021733
C    12.612084    8.678903   17.353297
N    10.253594   10.995944   14.053142
C     9.170117   10.188559   14.021733
C     8.471492   12.336515   13.994438
C    10.697092    7.604643   16.466563
C    11.720462    9.378073   12.953277
C    13.119287    8.407238   11.267865
