81
Coordinates from ORCA-job BEFNIM-oxo_1_1_tpss_d4_lanl2dz_631gpol_Fe2.opt
  Fe  7.05839813310326      3.82499249840763     -0.28249483205686
  Cl  8.92572746601332      1.14779635691651      8.71352170152567
  S   6.61845433670184      6.18791938554642      3.48763929878936
  N   8.70463056185060      3.86001054819230      0.85144244002696
  N   6.42552388198931      2.74301172520795      1.22425917818835
  N   5.27266756570732      2.10719265573638      1.53974512593109
  N   6.66699252010423      2.02590075904313      3.27845107589957
  N   3.34722492790633      0.29439130514528      2.94416952608119
  N   6.43369054866457      5.41201360303069      0.77683197982913
  C   9.88173895250387      4.40077920149104      0.49710901712641
  H   9.91692568730736      4.84080934181256     -0.49501032474561
  C   10.97830689208874      4.41473575324702      1.36485640339559
  H   11.91302250319075      4.86170970155796      1.03665642157598
  C   10.85091325685940      3.84890466497755      2.63672369236739
  H   11.68644907385715      3.84943768782506      3.33284550424305
  C   9.63329821223169      3.27420040388946      3.00816745708125
  H   9.50015396715405      2.82130595231398      3.98439785548169
  C   8.57826070152974      3.29087816319101      2.08906399230891
  C   7.26726211695967      2.70473907455378      2.25162867310368
  C   5.40831759541983      1.66468980894178      2.79981665555885
  C   4.42938815674155      0.93530166445305      3.55302008647534
  C   4.31408876981910      0.73223252492225      4.93835980716225
  H   4.98097414681358      1.12288188989010      5.69440839121952
  C   3.15389961193544     -0.03413856185865      5.16241374565966
  H   2.76856371330805     -0.36475561655864      6.11872385066103
  C   2.58481767127667     -0.29091637720949      3.92019850609880
  H   1.69755134853042     -0.85065395364768      3.65148978897428
  C   3.04390851616212      0.21679683884233      1.51440593786352
  H   3.93569172533312     -0.07660781432204      0.95262151328740
  H   2.68908960609460      1.18495707351384      1.14356259907908
  H   2.26258305992545     -0.53667255398385      1.38010750724843
  C   7.21426967340555      1.80707761293341      4.59048334936656
  C   7.72251440907718      0.54587369347227      4.92212383305912
  H   7.69871924088382     -0.26198273642215      4.19473908024340
  C   8.25042004955596      0.34073572430163      6.19979442111595
  H   8.65028857213454     -0.62827233963561      6.48512364904129
  C   8.25977472276670      1.40377061928957      7.11454669321418
  C   7.75065488388345      2.66636465134056      6.77859931020843
  H   7.76846303549535      3.47397465357853      7.50523817609913
  C   7.21800318710829      2.86985744779937      5.50202087611298
  H   6.81688109159346      3.83793864585091      5.20645380278579
  C   6.50287513015914      5.75137287033177      1.92679085799894
  Cl  4.10783317783965      9.30289490436422     -7.58251020886119
  N   5.34383000202147      3.94870637452306     -1.31721172101552
  N   7.61543798138503      5.11407049878918     -1.65312294854587
  N   8.74318017519612      5.81114504717339     -1.92104323106242
  N   7.12770294820611      6.44527668460824     -3.32134572245334
  N   10.56334471237506      7.94243124129897     -2.94479060771689
  O   7.57658184641552      2.51085698627773     -1.14112300372129
  C   4.22610853923415      3.25411844640904     -1.05627060673933
  H   4.28675324599140      2.56571065038504     -0.21749589711712
  C   3.05501827553101      3.43203965369471     -1.80195724813708
  H   2.17098044734589      2.84995368998591     -1.55542181303605
  C   3.04512628373156      4.36113666114612     -2.84514976062980
  H   2.14723937336290      4.52538184810311     -3.43661552082169
  C   4.20821609084153      5.08434077002501     -3.12627781086057
  H   4.23435444317802      5.81222858468381     -3.92989311912560
  C   5.34635092275995      4.84925476679811     -2.34610815394458
  C   6.64237917527280      5.47546847470881     -2.48069702077217
  C   8.45539722736552      6.63940940453780     -2.93772920729078
  C   9.34963011873065      7.58469467420518     -3.53964116078388
  C   9.24697394740539      8.29905635588593     -4.74620573150594
  H   8.43303998345781      8.23799702688289     -5.45490785782436
  C   10.40558562616494      9.08767807445406     -4.87624034160362
  H   10.64777416041942      9.75692954163041     -5.69214106746863
  C   11.19224428808747      8.84953590668966     -3.75452755933340
  H   12.15164462339316      9.26011152147738     -3.46526136154798
  C   11.10906766303252      7.47104265027665     -1.67026195017500
  H   10.36077789347953      7.56685581555425     -0.87781134859043
  H   11.41674601573896      6.42251677914975     -1.74966692624323
  H   11.97739215775518      8.09187976038758     -1.43183169719049
  C   6.39518612742608      7.13399402622990     -4.34912630916459
  C   5.82207245721485      8.37851125461192     -4.06249512953036
  H   5.93286311548213      8.81449626514608     -3.07254350085781
  C   5.11461345792642      9.05091752862685     -5.06291929456463
  H   4.66188927249532     10.01856531466881     -4.86534979904603
  C   4.99429292126036      8.46292215510786     -6.33023394631637
  C   5.56869385693655      7.21581810752400     -6.61664662893593
  H   5.46474014712343      6.78146491661509     -7.60710115118421
  C   6.27816079011506      6.54640789601900     -5.61529332966989
  H   6.74139728515358      5.58242519343490     -5.81377693129864
