82
Coordinates from ORCA-job BEFNIM-OH_1_6_tpss_d4_lanl2dz_631gpol_Fe2.opt
  Fe  7.22817133776961      3.52461615914431     -0.47177571449378
  Cl  8.68973159261229      1.51041930920438      8.92949007180174
  S   6.91218398436305      6.12987500377529      3.17657855509629
  N   8.89514322105109      3.63526537603232      0.94391995517739
  N   6.53513746417744      2.43045788879210      1.21300205045538
  N   5.35422961663150      1.85134735993876      1.55368241660500
  N   6.68997803166654      1.92415006266441      3.33866529758439
  N   3.34376160500289      0.23271063054236      3.05778041360164
  N   6.60634229556302      5.23303410509748      0.51377098803132
  C   10.05787566601743      4.25384330857136      0.69068854251263
  H   10.15114227739267      4.69216339061083     -0.30166529409326
  C   11.07547782118295      4.33788065717344      1.64635323710254
  H   12.00557232969776      4.84779657384752      1.40906055670046
  C   10.86810890996911      3.74647724210376      2.89705965507594
  H   11.64129524645358      3.78249965310632      3.66119402602186
  C   9.65361696276443      3.11034099303660      3.16952573425443
  H   9.47380658894280      2.65134901616398      4.13501802363496
  C   8.67244346591472      3.08310825009745      2.16782142315568
  C   7.34264294691806      2.48830515806698      2.27033261648956
  C   5.43973881191304      1.53664292769066      2.85505611363963
  C   4.42203258357774      0.90135305502062      3.64338645304081
  C   4.25505381444697      0.82863868747886      5.03660354458089
  H   4.90675131451097      1.26959677287711      5.77789326050911
  C   3.06828565786737      0.11308833566438      5.28820768101092
  H   2.64336161097135     -0.12001012359337      6.25643404207900
  C   2.53408491405265     -0.24291027325004      4.05501940937111
  H   1.64188090889953     -0.80427933496831      3.80685010995385
  C   3.08584873053480      0.03038249919674      1.63063771170867
  H   3.98655234422895     -0.33738312068510      1.13080037611734
  H   2.77695195153258      0.96945563727465      1.15878701563371
  H   2.28604037381725     -0.71018695294559      1.53968695643117
  C   7.17407096654530      1.82003962458390      4.68862910871473
  C   7.66389848739516      0.59246359058986      5.14905583254653
  H   7.67301113976800     -0.27303090817964      4.49099176978764
  C   8.13156389344130      0.49519975425464      6.46255726706892
  H   8.51614393722954     -0.44571014068425      6.84606236785711
  C   8.09892284126271      1.63036234612997      7.28512741100949
  C   7.60583535813320      2.85874946930179      6.82223787963741
  H   7.58975893527978      3.72370259483334      7.47955669346536
  C   7.13466547209264      2.95392877377482      5.50959083205672
  H   6.75099961756516      3.89359784155273      5.11669367561304
  C   6.72408459554089      5.63759535946780      1.63934098208636
  Cl  3.81258051793998      9.83811106352465     -7.03683058941978
  N   5.39066195284964      3.77126541252622     -1.63979087019359
  N   7.77889805734946      4.90009280352099     -2.03906225990149
  N   8.87304749636915      5.66875576940587     -2.27821369589601
  N   7.16058982344252      6.41109941116089     -3.50104076099906
  N   10.56112378310193      7.97827797012732     -3.10904982790685
  O   7.87469753904451      2.06036242474863     -1.38019746921138
  C   4.24789951891905      3.12209037597602     -1.37517401652628
  H   4.29349850639013      2.40473069910799     -0.55712855945287
  C   3.06995535910106      3.37534876667477     -2.08811305419348
  H   2.15923922915189      2.83418138841425     -1.84524324371556
  C   3.09789887908482      4.33466318119348     -3.10449301094938
  H   2.20221586143227      4.55782917902562     -3.68011023754898
  C   4.28799586050820      5.01631239232863     -3.38271134381344
  H   4.32446958755508      5.76246962706628     -4.16864234853044
  C   5.42805761482501      4.71144924918626     -2.62498050375710
  C   6.74569913246183      5.32819973756802     -2.75845655157893
  C   8.50232944600951      6.60469356545804     -3.16649613387870
  C   9.33363139407001      7.64981313353063     -3.69201868825870
  C   9.15680777708634      8.49523445239724     -4.80092542250362
  H   8.31497899121281      8.48819334847050     -5.47905047276713
  C   10.28501157671576      9.33323619276919     -4.88478110595417
  H   10.47178163116068     10.09919245665956     -5.62688618660006
  C   11.12653587891970      8.99516257354886     -3.83066843138063
  H   12.08436281268347      9.40323743196596     -3.53284057463232
  C   11.16309378010659      7.39677548279294     -1.90680052227336
  H   10.45296081826687      7.43010218124035     -1.07451906302737
  H   11.45283555780292      6.35668428168723     -2.08745961491018
  H   12.04696338935251      7.99162666265121     -1.65906001139432
  C   6.35235000282044      7.23532310630945     -4.35780571121306
  C   5.76075505683059      8.38843068850528     -3.82923877444138
  H   5.91659023581069      8.64959542655012     -2.78531405058517
  C   4.97542682414982      9.19513904458745     -4.65741012174984
  H   4.50646249725923     10.09532996917846     -4.27008992053890
  C   4.79798754605375      8.83077688405135     -5.99941796805507
  C   5.39241692767446      7.67648762642140     -6.53011568060548
  H   5.24343666241733      7.41672280773690     -7.57450648653179
  C   6.17947243909648      6.87280567153236     -5.69985077910228
  H   6.65915728623126      5.97700149644774     -6.08794861932247
  H   8.51473312404373      2.14746951059623     -2.11426636531306
