80
Coordinates from ORCA-job BEFNIM_1_3_tpss_d4_lanl2dz_631gpol_Fe2.opt
  Fe  6.93953367020640      4.47851449880406      0.17965776936955
  Cl  8.87666270558925      0.77940668993557      8.66699879629937
  S   4.67940880721437      5.04164821611431      3.71476929230507
  N   8.61220169005401      4.33761397057277      1.19137933749760
  N   6.49626804896466      2.90532710394488      1.27683386726916
  N   5.39398341095567      2.12802230547333      1.46880223244170
  N   6.76761979506056      1.91368636005028      3.21872181011975
  N   3.52872516922572      0.09519203642719      2.56727574809883
  N   6.27371108394592      5.83456956885762      1.50872808654297
  C   9.70806400422612      5.10091547917553      1.00030032879988
  H   9.70345864482353      5.70133871244461      0.09466728663147
  C   10.77465938491654      5.10619357090888      1.90092235257170
  H   11.63715873951587      5.73791358449789      1.70510527699326
  C   10.71031960052100      4.30070216902153      3.04504659979209
  H   11.52435719594919      4.29293039248764      3.76613464884168
  C   9.58424147587476      3.50159808117583      3.25434548147496
  H   9.50124042224128      2.86546988240881      4.12916857518135
  C   8.55141881167372      3.53777232857142      2.30912796228058
  C   7.32116810090856      2.78511759324586      2.32140626420816
  C   5.54990171823164      1.52335604707222      2.65592967595261
  C   4.62514607767670      0.61317652876496      3.26383437626489
  C   4.57610821775218      0.09350839907752      4.56916366882819
  H   5.26904934762678      0.31565132400350      5.36799268776271
  C   3.44480550423824     -0.73921426936441      4.65622360689844
  H   3.11066157648270     -1.29234474399154      5.52494051189654
  C   2.82452926493677     -0.72005238047094      3.41181475104057
  H   1.93549973867541     -1.22742384960406      3.05824233618956
  C   3.15243110981912      0.34145753551789      1.17344571456760
  H   2.82002125366567      1.37630199593159      1.04162584346040
  H   2.33669489839184     -0.34408420025006      0.92637790357631
  H   4.00312418644437      0.15850346675897      0.51084436899931
  C   7.27639855236275      1.62772957438263      4.53316319830986
  C   7.99546596209404      0.44766270067831      4.75516641475948
  H   8.15818798821618     -0.25513784334735      3.94144169929383
  C   8.48958463948868      0.18358335916672      6.03595853340462
  H   9.04909210108270     -0.72550251943262      6.23822952444170
  C   8.25370664729804      1.10879641514018      7.06333793883834
  C   7.53311078027982      2.29007556665674      6.83727559616565
  H   7.36115695926918      2.98947899998182      7.65082607906066
  C   7.03674138453795      2.55300274389957      5.55711178813622
  H   6.46532130997009      3.45604252156448      5.34436743895767
  C   5.60228845851431      5.51874255476094      2.45801750053662
  Cl  4.22789058445332      8.69356869252417     -7.99022865342453
  N   5.23851376293851      4.63156697806324     -0.78024283205810
  N   7.56485891459194      5.45418768650241     -1.39701418497183
  N   8.75225212366335      5.97350262699447     -1.82991668937800
  N   7.14849373665735      6.45917888565216     -3.30793166257151
  N   10.72814800489338      7.63346309111411     -3.32569436382385
  C   4.04751409853892      4.24794814212819     -0.27292411631243
  H   4.08641136626187      3.72520685426822      0.67739134881220
  C   2.84438725034965      4.49969834373977     -0.93505788811926
  H   1.91091009236774      4.17551247677030     -0.48292225125854
  C   2.86249869464652      5.17754594712900     -2.16026410122058
  H   1.93826817202101      5.38751288753995     -2.69354345951132
  C   4.08507146178961      5.60306498803529     -2.68578036683050
  H   4.13287570158047      6.15377387721514     -3.61942594735048
  C   5.25516936095828      5.32340185339121     -1.96909146247022
  C   6.60105201275728      5.73895089944889     -2.27869163608678
  C   8.50502585775612      6.59178953344335     -2.99173083263628
  C   9.46212908782334      7.28465740437034     -3.80505986662596
  C   9.38698363591855      7.71214027482851     -5.14195051296004
  H   8.54566129722167      7.57487713429794     -5.80692997493226
  C   10.61453391051205      8.32056297147679     -5.46609350983048
  H   10.89313874319513      8.75505996900076     -6.41785685606188
  C   11.41479198842479      8.26055100891785     -4.33054325933981
  H   12.42096052552438      8.62110301402359     -4.15631064550594
  C   11.26572013565449      7.41994729184791     -1.98016845272718
  H   10.58111950603938      7.82924599151218     -1.23010793070574
  H   11.41107676162097      6.35167007893507     -1.78903885916385
  H   12.22497066692338      7.94181999907298     -1.92163472920119
  C   6.44369627449847      6.99827935539470     -4.43879685850035
  C   6.06622970249781      8.34638855155042     -4.42914439003452
  H   6.30879398446534      8.97413230955351     -3.57514868054597
  C   5.38183753224733      8.87217870117381     -5.52818111478954
  H   5.07922238474053      9.91547600654761     -5.54437892498707
  C   5.08658334939771      8.03678599536400     -6.61507754841244
  C   5.46404566922528      6.68615024270728     -6.62426269168129
  H   5.22707307715601      6.05891593497311     -7.47915293289018
  C   6.15211916300244      6.16371565389467     -5.52519194536664
  H   6.46524296876207      5.12212587558121     -5.51122409058648
