86
Coordinates from ORCA-job BEFNIM-CH3OH_1_5_tpss_d4_lanl2dz_631gpol_Fe2.opt
  Fe  7.05035538114998      3.94708314355820     -0.21334077920545
  Cl  8.68928444185681      1.58717518475166      9.00944288546251
  S   6.78249390276529      6.21426680861181      3.45666137675711
  N   8.81748264541143      3.84828422341331      1.05818928212836
  N   6.46372922022347      2.60490335310571      1.31634341080652
  N   5.29452191938849      1.99553607642897      1.66559523827251
  N   6.64990657064947      2.04988868062324      3.43540544817953
  N   3.26762835626304      0.41029906472326      3.16362249240989
  N   6.36905953782405      5.55316326286292      0.73830023284203
  C   9.97790376869107      4.48753643896679      0.83243059950303
  H   10.06532463972186      4.95506315604161     -0.14711264472704
  C   10.99439017791312      4.55954930376001      1.78982436756896
  H   11.91730148813869      5.09044931417277      1.57030688839286
  C   10.79019189142454      3.93456793817412      3.02522686699268
  H   11.55906910137979      3.96323385157875      3.79438997579960
  C   9.58294444118507      3.27707260139255      3.27703421890031
  H   9.40721755954574      2.79467312796606      4.23179992921652
  C   8.60393065250633      3.26218939286382      2.27165702345105
  C   7.28036995663374      2.64626528925953      2.36797098382394
  C   5.39934244392153      1.65613820910828      2.95860140361277
  C   4.39505662215960      0.99614260649361      3.74697957886147
  C   4.28542403109903      0.81891463304853      5.13625134077021
  H   4.98409583764730      1.17456526633125      5.87994693746809
  C   3.08569514293229      0.12390498002683      5.38767988998481
  H   2.69657885593008     -0.17074565056712      6.35419324257264
  C   2.48487847654088     -0.11514954031292      4.15810237334478
  H   1.56090218269193     -0.62204701358457      3.90883477390346
  C   2.93026946244348      0.33777718282544      1.74144167516823
  H   3.76616610231109     -0.08074871474743      1.17291461700931
  H   2.70142810008042      1.33476115704867      1.35048371976499
  H   2.05493679895827     -0.31093606349317      1.64241330302666
  C   7.14443496898413      1.93515042493453      4.77986613587784
  C   7.70226332982262      0.72373403472097      5.20537314435017
  H   7.75476281341344     -0.12131581869918      4.52298892639420
  C   8.17926768302837      0.61404890808289      6.51461207829581
  H   8.61499770494386     -0.31525055634106      6.87081385881813
  C   8.08699409614744      1.72183676408347      7.36923713008646
  C   7.52568313836583      2.93369833618977      6.94270196743770
  H   7.46405534164466      3.77730047519749      7.62464825069006
  C   7.04595732289842      3.04032422984257      5.63401119028888
  H   6.60959303700878      3.96782764457948      5.26852482699013
  C   6.53078045990491      5.84674584057747      1.89646554415199
  Cl  3.79115635714083      9.94707322961430     -7.02012110456389
  N   5.34175897273991      3.87632000801443     -1.60185749336844
  N   7.71253271039376      5.05646549088958     -1.92787177938810
  N   8.81331408231934      5.82257108168884     -2.18582931717660
  N   7.10934439409189      6.54549658686530     -3.43087642604965
  N   10.48465612202126      8.14894337887302     -3.01441814175350
  O   7.76816513103811      2.13307629222809     -1.34961922241073
  C   4.18589432341417      3.24437011150498     -1.33665494223083
  H   4.23512351539124      2.50513874390954     -0.53833038636807
  C   2.99700678788192      3.54225832498633     -2.01340128431314
  H   2.07981984395180      3.01332701831122     -1.76736897255774
  C   3.02233231710493      4.53658062890393     -2.99619549027690
  H   2.11840395299991      4.79816974085312     -3.54224445995404
  C   4.21796083429458      5.21020259851770     -3.27345855142246
  H   4.24648581082725      5.98996075440646     -4.02632110689938
  C   5.36738240768200      4.85809893049368     -2.55102089993851
  C   6.68901333622050      5.47692822383882     -2.67029867090499
  C   8.44958126004165      6.74214975108187     -3.09089711729545
  C   9.28194145354756      7.78331983763800     -3.62521670135445
  C   9.12855275251388      8.58963241023642     -4.76534908850637
  H   8.30895640867165      8.54663996894044     -5.46924585874858
  C   10.24719748696121      9.44225370333146     -4.84077927861316
  H   10.44673020775813     10.18684645314430     -5.60107533673977
  C   11.05854534104907      9.15174586308448     -3.74981354539567
  H   11.99917306701377      9.58525098026209     -3.43364523702814
  C   11.05126399857172      7.61839170498191     -1.77221890168308
  H   10.30361757083689      7.64775202601122     -0.97335904542305
  H   11.38247096828613      6.58416536577126     -1.91138698599354
  H   11.90308453465385      8.24888836610044     -1.50123364465213
  C   6.30982704136321      7.36398725133019     -4.30055683573875
  C   5.73662128996123      8.53588755085389     -3.79307808330443
  H   5.90052978191690      8.81512306738195     -2.75507166490790
  C   4.95795070262512      9.33642459380120     -4.63351140623740
  H   4.50297945951932     10.25039030218014     -4.26207013207849
  C   4.76888827893793      8.94776558521183     -5.96703587933323
  C   5.34565205077819      7.77567649614977     -6.47750694779953
  H   5.18854190659659      7.49764059975154     -7.51599911668089
  C   6.12591492114584      6.97854561468087     -5.63469507132452
  H   6.59199163625716      6.06904252729137     -6.00725119484197
  C   9.14542267643286      2.10146903533026     -1.80610033324450
  H   9.41697561359305      3.04392300586383     -2.29832292368553
  H   9.75169836281827      1.96328134228820     -0.90874734290523
  H   9.29468372515114      1.25261653688545     -2.48406051872724
  H   7.18555699793322      2.17037136891480     -2.13551726362374
