32
Coordinates from ORCA-job BOJGAJ-oxo_2_1_tpss_d4_lanl2dz_631gpol_Co3.opt
  C   4.48957343527522     21.42461681814850     -2.16707966221829
  H   4.53086822945229     20.44235237636022     -1.68433938831913
  H   3.58504219176427     21.48236354734357     -2.78667705592151
  C   4.50772905682276     22.54264158174266     -1.12114476971946
  H   4.26744434048846     23.51577658209876     -1.55688541653306
  H   3.77623624884620     22.33953421305839     -0.33079704919132
  C   5.66922120531431     22.72394910214378     -3.98859574137056
  H   6.14903308964744     22.42236507963042     -4.92463250105537
  H   4.62121931063409     22.95586219361277     -4.21494227842061
  C   6.39086972078393     23.93502775750827     -3.39661198168524
  H   6.63612471478823     24.66247106213053     -4.18073595507729
  H   5.79438014694854     24.45306908210169     -2.64198793512463
  C   6.05785397139947     20.25703127073742     -3.78213081620802
  H   5.42558562430580     20.16356086139141     -4.67508407028806
  H   5.84450868100218     19.42335046374053     -3.10429330257601
  C   7.54142906181357     20.28678833255150     -4.15659388347036
  H   7.86002080853785     19.32133114591426     -4.56821257762840
  H   7.76604332236667     21.05878062497481     -4.90000128727304
  C   8.67825813279264     22.20369003568875     -0.62749692495517
  O   6.82719404933863     20.30950636573245     -0.90953039851648
  Co  7.21709376507122     21.70617748116100     -1.69486140615302
  N   5.72114095838535     21.53705546151107     -3.04217573423189
  N   5.89721092001432     22.62859533897007     -0.51467711498059
  H   5.95015018582548     22.09431788227945      0.36325400215061
  H   6.15436839458203     23.59348495833183     -0.27119144880693
  N   7.63361169794831     23.43144269675589     -2.72726533726391
  H   8.03723090992977     24.14415189381605     -2.10442907168707
  H   8.36879526531827     23.25169224599038     -3.42278652187440
  N   8.34009723777099     20.60563155597619     -2.91425912851560
  H   9.26001340821353     21.01298643938236     -3.12950436675134
  H   8.53132507522565     19.75531695644052     -2.36613435431815
  N   9.58752683939236     22.57597859277387      0.02130347798435
