32
Coordinates from ORCA-job BOJGAJ-oxo_2_5_tpss_d4_lanl2dz_631gpol_Co3.opt
  C   4.53364795494088     21.39563793781591     -2.16126122644506
  H   4.62259932260468     20.44940764882450     -1.61543184272260
  H   3.66687884017982     21.33406629050652     -2.83362552193837
  C   4.38241351836134     22.55565103028385     -1.17698762388286
  H   4.14864150261794     23.49794548496950     -1.68068363224957
  H   3.55887728338370     22.33728925229944     -0.48382841797628
  C   5.73816004513868     22.73605287037251     -3.92628185248323
  H   6.24022883220927     22.44799485512166     -4.85494772279291
  H   4.69150231801374     22.95450823522631     -4.17423832170267
  C   6.42577769194851     23.96126004554026     -3.32734098415827
  H   6.62904886980122     24.71109474229557     -4.10281389937655
  H   5.82892105817521     24.44093521517303     -2.54847155064099
  C   6.04889963641558     20.26246391482204     -3.74210970624582
  H   5.32990147706069     20.17535669725781     -4.56848773601958
  H   5.87668981617071     19.43705650284494     -3.04187798199477
  C   7.48745361394210     20.21727895190973     -4.26121724709637
  H   7.68193051521424     19.23105174574604     -4.70585411180690
  H   7.68111298173771     20.97058491954882     -5.03184440668688
  C   8.84446700172544     22.26726754862569     -0.55969286260558
  O   7.04407497731703     20.41478463137948     -0.79259480109585
  Co  7.37151764808123     21.81253369016843     -1.62013745357143
  N   5.79504740436726     21.54690421382946     -2.98314572320240
  N   5.66361661140182     22.71131975874410     -0.43354649152954
  H   5.69556098531726     22.11760050815690      0.40409228669594
  H   5.83783453389431     23.67535840739995     -0.12704380597655
  N   7.70729421454046     23.50796725722962     -2.68837200757229
  H   8.11116536056396     24.25786177612916     -2.11126244408859
  H   8.41869827632994     23.30980205834184     -3.40413403897958
  N   8.40428329792624     20.47220960523225     -3.12132545048880
  H   9.32765653015864     20.81548517777151     -3.41124462803229
  H   8.55922505770159     19.63060716765262     -2.55283295984652
  N   9.76407282275860     22.60556185877974      0.11804416651324
