33
Coordinates from ORCA-job BOJGAJ-OH_2_2_tpss_d4_lanl2dz_631gpol_Co3.opt
  C   4.50705810606033     21.42231036292500     -2.15521261199427
  H   4.56244787061626     20.44428237388042     -1.66683021076591
  H   3.59529327917714     21.46378152226715     -2.76604095783922
  C   4.51750251454510     22.54887447249357     -1.11839287750888
  H   4.26173543824906     23.51486208514635     -1.56178120313311
  H   3.79289827921180     22.34736240871021     -0.32188787858259
  C   5.66117018137971     22.72152200411269     -3.98479034963155
  H   6.13461461682033     22.41969182118217     -4.92394526238042
  H   4.61195183752907     22.95223279800808     -4.20595967644810
  C   6.38436167215264     23.93545006946111     -3.40118696168414
  H   6.64008133800501     24.65763765050254     -4.18687713447311
  H   5.78926802383073     24.46201513445828     -2.65110989348131
  C   6.06479124544418     20.26126901805890     -3.76656333624277
  H   5.41728060428967     20.14903329386404     -4.64644693157539
  H   5.87605658712587     19.43299498992812     -3.07602309527894
  C   7.54088663008411     20.30693634117879     -4.16075448041540
  H   7.86925859167099     19.34226608989847     -4.56666566153916
  H   7.74956666664822     21.07392106037151     -4.91435671428818
  C   8.66241468909688     22.24551516307827     -0.60143797065280
  O   6.92828121313620     20.18315403661980     -0.91820820121123
  Co  7.23662406066043     21.74635802359573     -1.70099821905841
  N   5.72943350405591     21.54228636331472     -3.03235576090305
  N   5.91538778847569     22.66016333698839     -0.52489488649340
  H   5.95070498713021     22.20811373888568      0.39721024217821
  H   6.16258369993976     23.63937154156169     -0.33361283036223
  N   7.62717476580260     23.43446226291409     -2.72490891965588
  H   8.03652462388054     24.15219942674353     -2.11153035163649
  H   8.35761419279557     23.23573576983167     -3.42004099428017
  N   8.33570360915295     20.64565286635890     -2.92452439277519
  H   9.26983548504381     21.01491940537281     -3.14654271660057
  H   8.48824006271494     19.80455024179733     -2.34997605408389
  N   9.54976780629733     22.59883970674936      0.08940806349620
  H   6.83475602897679     20.20791461973998      0.06415822930143
