31
Coordinates from ORCA-job BOJGAJ_2_3_tpss_d4_lanl2dz_631gpol_Co3.opt
  C   4.50910398667212     21.74737449134841     -2.28421097569725
  H   4.19345397471274     20.71903164549953     -2.07835366241818
  H   3.72276554011107     22.22152315593678     -2.88302085038955
  C   4.72619058226242     22.49782536058099     -0.97169267544949
  H   4.82196405873957     23.57870513204863     -1.11489764561303
  H   3.89453226540436     22.32127370339127     -0.27712718242269
  C   5.83133598924294     22.69662601598057     -4.21063362186858
  H   6.60423140843817     22.38437738123074     -4.92192756307575
  H   4.86751582209787     22.69225051427053     -4.73640522221685
  C   6.17161822353861     24.07195002643745     -3.65564611800499
  H   6.34338757729275     24.79299834972641     -4.46410355527737
  H   5.38133281395613     24.46954230330417     -3.01182905608963
  C   6.00902898082678     20.28186466497607     -3.65067612449344
  H   5.36924398008080     20.13049532042931     -4.53078542739863
  H   5.69804367601033     19.56995393325233     -2.87733956437909
  C   7.48270427094489     20.07622564397701     -3.97429114451702
  H   7.68774295817045     19.02891636574527     -4.22812681167981
  H   7.83029506892069     20.69734068915300     -4.80584776188021
  C   8.85112584502308     22.46559764112127     -0.76633266532929
  Co  7.40616151042688     22.09533081555417     -1.86493728132624
  N   5.80473603737612     21.67750631837516     -3.08808635647639
  N   6.02174145351810     22.01374266900538     -0.39169177090159
  H   5.93387674695074     21.05450082770155     -0.02678703166226
  H   6.31658912749405     22.58661587464709      0.41158278401759
  N   7.41054063083920     23.90054421230420     -2.81991020056236
  H   7.52839261435041     24.67194249378922     -2.14846109598998
  H   8.25606767157245     23.93362986438337     -3.40767509957302
  N   8.25071527499005     20.48803821217973     -2.74675085656551
  H   9.24232821343501     20.66754738205102     -2.95976740810041
  H   8.26434339721539     19.72924136444708     -2.04889143372872
  N   9.76919029938534     22.70838762715085     -0.06177662093007
