37
Coordinates from ORCA-job BOJGAJ-CH3OH_2_3_tpss_d4_lanl2dz_631gpol_Co3.opt
  C   4.50247686148472     22.06033773476265     -2.45592997458878
  H   4.15017778173822     21.04140519797775     -2.26674275733357
  H   3.73009737149975     22.57415539645052     -3.03984814211760
  C   4.75563748987924     22.77679425600740     -1.12955057262844
  H   4.83237857814654     23.86253929217733     -1.25057927971686
  H   3.94267023944190     22.57453271513975     -0.41935196120158
  C   5.82473784339638     22.95597099302273     -4.40920301259515
  H   6.58178294154878     22.61242577917249     -5.12421534145441
  H   4.85506091379773     22.96973859779630     -4.92391941639019
  C   6.20672186778281     24.32916282034512     -3.87670820268860
  H   6.36052772227065     25.04253145043097     -4.69555355593452
  H   5.44554810610838     24.74063228921266     -3.20638016886000
  C   5.95448363287373     20.55078454074679     -3.82455825464212
  H   5.35097568355166     20.42564094204180     -4.73323176303151
  H   5.57967021388424     19.85677157691103     -3.06481220484398
  C   7.43271776660954     20.27925492211505     -4.06907215631251
  H   7.60267685443083     19.22229643106402     -4.31278015624130
  H   7.85084289305217     20.88381578147024     -4.88121561136989
  C   8.86900073118136     22.70332012763062     -0.97923250605461
  O   7.03705130522898     19.59074361647140     -0.38451294148519
  Co  7.41326837974821     22.36991913882810     -2.07566232416548
  N   5.78700975149895     21.95477801623703     -3.27293026600429
  N   6.06481999444444     22.29626569652502     -0.59942470619940
  H   6.08042605659268     21.28632104831937     -0.33633585154360
  H   6.36285585364576     22.82897412076221      0.22790615266038
  N   7.46767391348495     24.13994163019975     -3.08200729599535
  H   7.63545365072537     24.92340025967454     -2.43621963359765
  H   8.29170670051083     24.12273433623794     -3.69972772794640
  N   8.13071744328816     20.65443363697144     -2.80095167722546
  H   9.15453923975922     20.64995520581203     -2.89543651411763
  H   7.87707700779402     20.01056925959911     -2.01379791967461
  N   9.77826825218240     22.88782349944650     -0.24791248274917
  C   8.00325966121678     19.44771148889801      0.72330337894576
  H   8.61957067223403     20.34876014636641      0.70636762188906
  H   7.46618652506953     19.37168540851387      1.67409536627483
  H   8.62468116353092     18.56124256638479      0.56072772074799
  H   6.48193893636547     18.78295008027493     -0.37505586180795
