37
Coordinates from ORCA-job BOJGAJ-CH3OH_2_5_tpss_d4_lanl2dz_631gpol_Co3.opt
  C   4.47961381511886     21.63245593042215     -2.32532437407125
  H   4.51256455107451     20.66883333656210     -1.80070491798430
  H   3.59622039504777     21.62297671265305     -2.98101198022203
  C   4.40378061955696     22.78424623641542     -1.32476908302361
  H   4.21450828979656     23.73793120253989     -1.82614625936162
  H   3.58186637077380     22.62058628383430     -0.61787286217230
  C   5.72123415739956     22.92848956002681     -4.06537695597609
  H   6.15742627703633     22.61560299498085     -5.02006089033802
  H   4.68379115854409     23.22407220208322     -4.27015647640059
  C   6.51493184575204     24.11529445824040     -3.50856009506937
  H   6.67137202340633     24.85974861347025     -4.30067535794073
  H   5.98965545407758     24.61403592376292     -2.68925453020680
  C   6.00423181001302     20.46397821210186     -3.89199135523251
  H   5.34306471886813     20.38602466756189     -4.76694849271184
  H   5.77786510311451     19.62879376970337     -3.21790302447242
  C   7.47330160846113     20.41101128525852     -4.30263312775974
  H   7.69835198841262     19.46590220285757     -4.81189679971214
  H   7.74003210989385     21.22558483207447     -4.98457412136077
  C   8.63137571038412     22.68545839084201     -0.33191511487968
  O   7.05036335085797     20.13332982601089     -0.52423451346487
  Co  7.40430628765072     21.91388921004966     -1.65630092984761
  N   5.73482523569704     21.73722188103050     -3.13774393650107
  N   5.72100654710699     22.87414041635162     -0.60978233825873
  H   5.67406553642472     22.40952406286031      0.30436319102152
  H   5.95642276815491     23.84812347968128     -0.38888960164465
  N   7.80875686081687     23.61841857983917     -2.96368725721590
  H   8.28152133160613     24.35068752080755     -2.42073313051942
  H   8.45789954321422     23.37666580663660     -3.72205340743725
  N   8.29731499636750     20.56367590110440     -3.05960170754821
  H   9.26922985395199     20.80771702546710     -3.28822495896089
  H   8.33869447321462     19.66134982848531     -2.57028095443399
  N   9.42288897457444     23.05500457695638      0.47230186510816
  C   8.13004073112456     19.52160212959185      0.28847446246391
  H   9.05694825921201     19.68582320869168     -0.26390697032919
  H   8.18310713079497     20.02438781214747      1.25836902303937
  H   7.92061833036310     18.45380617934415      0.39522148361085
  H   6.20149178213508     19.96392573955128     -0.06597450018607
