58
Coordinates from ORCA-job DEDKII-oxo_1_1_tpss_d4_lanl2dz_631gpol_Fe2.opt
  Fe  3.86425938185284      0.10062997975511      7.48384094151401
  N   4.68127290788759      1.85118595009300      7.09727985200163
  N   5.39864511021436      3.54380829252453      5.87672608632097
  C   4.74438527716259      2.35519170811817      5.86397892896594
  H   4.33218816500760      1.88258704275018      4.98407232298779
  C   5.32029612868597      2.74438687046126      7.94001198105027
  H   5.35502091097837      2.58730348147553      9.00845037183127
  C   5.76700439553073      3.80409999392121      7.18852763560382
  H   6.29468182993465      4.70708518549791      7.46276959468887
  C   5.66524449068684      4.39455896425488      4.71360001286330
  H   5.21678651555437      3.93043173817520      3.83134839212242
  H   6.74580195791970      4.49384491024902      4.56389977792562
  H   5.22169968670320      5.38373581631705      4.86839746671924
  N   2.13902896755300      0.96766630341465      7.82883282584654
  N   -0.04206948778464      1.28773969127673      7.76284421907531
  C   0.97062441622322      0.43633875817707      7.46655741390015
  H   0.84133047636276     -0.51515026894568      6.97212541390270
  C   1.87218441615287      2.21239287352418      8.37059098255845
  H   2.65424710836069      2.82922959388321      8.78768356074961
  C   0.51646644294538      2.41843378188837      8.34125697956669
  H   -0.09328724052663      3.24002385886760      8.68960173053191
  C   -1.46723767713474      1.05667566068286      7.51392157471883
  H   -1.58647733183292      0.07544662350274      7.04703570369587
  H   -1.85699663563976      1.82833601548241      6.84146823679089
  H   -2.01684812496873      1.07955773716884      8.46090603555121
  S   3.81529984910068      0.85976166279127     10.69608634963728
  O   4.43865466011860      0.25088035617558      9.41773422186259
  O   2.46768131156218      0.31557342766907     10.95948358995309
  O   3.96974882012778      2.32484349962980     10.72158965797849
  C   4.91051211815304      0.19074764649162     11.96196698416557
  H   5.93134353653901      0.54272768188005     11.78137173951364
  H   4.86901370388630     -0.90312821962457     11.93576619320963
  H   4.56075115489600      0.55462426827662     12.93354229697917
  N   3.10712763892489     -1.66156761965209      7.92461673308840
  N   2.10154031072841     -3.30777033664624      8.98719337152289
  C   2.49470461949569     -2.00973457016781      9.05863464267613
  H   2.32190580450791     -1.34777661577806      9.90359730956260
  C   3.10516104975406     -2.76719858214927      7.09467027662340
  H   3.53683619260016     -2.72169107252192      6.10546394352639
  C   2.48217750186256     -3.80278830634168      7.74684375509679
  H   2.27880391354626     -4.82331049295177      7.45330088495702
  C   1.39791128872905     -4.04381222041924     10.04196463795567
  H   1.23244452181967     -3.36672322497485     10.88385654984849
  H   0.43341158557294     -4.40227669527095      9.66639358185013
  H   2.00350756313030     -4.89519256556881     10.37097601315289
  N   5.63338745974946     -0.73537252810106      7.22304835208393
  N   7.63802763737675     -1.58223774472452      7.58230214701707
  C   6.53478911226571     -1.03493077980401      8.15657886642528
  H   6.41003963330122     -0.85953305474991      9.21390693919328
  C   6.17130684350591     -1.09915846571429      6.00344410916246
  H   5.61073969372393     -0.95104873629996      5.09146705757543
  C   7.42062043791395     -1.62980960325445      6.21318989740328
  H   8.16023388724811     -2.02898132689607      5.53304553210825
  C   8.84065144223269     -2.03599453462142      8.28685028300659
  H   8.70173687459749     -1.86658479522580      9.35776791474519
  H   8.99789026712848     -3.10455283074863      8.10526795086523
  H   9.71156833156818     -1.46994285314670      7.93963117047116
  O   3.50371914650293     -0.11858133007597      5.89161900529868
