57
Coordinates from ORCA-job DEDKII_1_1_tpss_d4_lanl2dz_631gpol_Fe2.opt
  Fe  4.00459140827406      0.08261994704189      7.60898158999969
  N   4.75419207203306      1.81303656958443      7.06365366860897
  N   5.10618674477518      3.81848512355080      6.18953505587444
  C   4.26917697385311      2.74949333950101      6.24305237265853
  H   3.33547989127574      2.69429509821672      5.70123166248033
  C   5.95081393168433      2.30466496498777      7.55852439128653
  H   6.51796394009490      1.73698821980071      8.28052353989071
  C   6.17949396822197      3.54789056706031      7.02698654788626
  H   6.97806059342275      4.26188322321124      7.17223179044998
  C   4.90735907307096      5.03654999424363      5.40077845374711
  H   3.95463816780602      4.95833583538063      4.87020594758242
  H   5.71945970647775      5.14988812046180      4.67428041355732
  H   4.88174230855730      5.90729022592869      6.06448440575310
  N   2.20840676974422      0.86579920023461      7.71554467312038
  N   0.02233716919716      1.08265010359578      7.38188713650007
  C   1.09846261065198      0.26124114409999      7.26848703849440
  H   1.04359925443672     -0.74055498489294      6.86615237973723
  C   1.81713652980801      2.13110820366318      8.13903996879322
  H   2.52542395444812      2.79269949588177      8.61950431635203
  C   0.46748805432829      2.27254943829474      7.93933742307916
  H   -0.21309955352767      3.08213961717284      8.16375033971807
  C   -1.35567475214046      0.76170406590950      7.00507464407224
  H   -1.38068937237746     -0.25237732657436      6.59691519158359
  H   -1.71004082016284      1.46656689092355      6.24497806433373
  H   -2.00445005546649      0.81461966614464      7.88610521841277
  S   3.97839909722212      1.11257918094704     10.53050711528942
  O   4.69156770772725      0.20740582142776      9.49837858170523
  O   2.63992906134182      0.58065797834801     10.87443507511479
  O   4.05736196520051      2.53773227157708     10.16026551771573
  C   5.03174158588288      0.88275033366291     11.97511189189889
  H   6.04495173338169      1.22111242432646     11.73724609119160
  H   5.03634286167716     -0.17530609301869     12.25536552271978
  H   4.61882496978087      1.48426782612169     12.79145684645465
  N   3.23866623374456     -1.69191931219640      7.99761767057530
  N   2.18972020855798     -3.22524012326274      9.19736487431179
  C   2.54060658011709     -1.91483271260043      9.11757244375906
  H   2.32543358600574     -1.15829593958360      9.87054087201450
  C   3.33612096384601     -2.90702482438784      7.33726917788181
  H   3.86777137284053     -2.99929820589637      6.39977426181162
  C   2.68219242922933     -3.86860609062253      8.07029308732991
  H   2.52386518838124     -4.92497933923975      7.90215044121359
  C   1.43117109809978     -3.83890270260192     10.29157067646878
  H   1.21937709758285     -3.06865306696042     11.03752615924949
  H   0.48919262643812     -4.24879773429673      9.91088219099427
  H   2.02077919698815     -4.63943087316782     10.75104362517986
  N   5.72070049004635     -0.77121577378151      7.21568749355916
  N   7.51743644390920     -2.03662132047290      7.49850254383221
  C   6.37194181773414     -1.56929526627427      8.06445734396181
  H   6.04989873222481     -1.78957927616562      9.07160175292053
  C   6.48134365607292     -0.72336858795239      6.05828107889219
  H   6.17928053220864     -0.12482008390348      5.20967969614724
  C   7.59859167709581     -1.50759332964661      6.21947988893911
  H   8.42826410303274     -1.73059000312780      5.56305078921440
  C   8.49174284483593     -2.92847221394387      8.13279010440880
  H   8.14281782193479     -3.16258030562246      9.14195655006001
  H   8.58190592564918     -3.85509223813810      7.55559373211919
  H   9.46760182272264     -2.43465716296966      8.19220066909200
