58
Coordinates from ORCA-job DEDKII-oxo_1_5_tpss_d4_lanl2dz_631gpol_Fe2.opt
  Fe  3.88443686059964      0.07630252476875      7.56649680222014
  N   4.68398815788904      1.94831644375054      7.14206207818155
  N   5.36152645848855      3.62656251996705      5.87453214559614
  C   4.79702143626112      2.39457292733822      5.88950057646714
  H   4.48152052913520      1.85227133163184      5.00912454691935
  C   5.19477459011657      2.93331550246391      7.97113423798576
  H   5.17356923572654      2.82710934471761      9.04768877468193
  C   5.61769789913990      3.98298936480133      7.19428752137344
  H   6.06074932720185      4.93659552899032      7.44704708785344
  C   5.64899538506077      4.43525960057892      4.68674916709649
  H   5.31146548896039      3.88912082621475      3.80196606715182
  H   6.72631228109076      4.61908182079201      4.61279135574248
  H   5.11576427715522      5.38981922365920      4.74986042627205
  N   2.00237532842453      1.01434564116156      7.94602184619267
  N   -0.15468349472321      1.37296045572767      7.61019356223167
  C   0.91057549688809      0.58742457643228      7.31149997971225
  H   0.86929480556073     -0.25692811670301      6.63738861408625
  C   1.62946411768248      2.12986463986657      8.67600164385378
  H   2.33546758839625      2.65407821780309      9.30572938829461
  C   0.29118663651593      2.36180056847412      8.47891066972280
  H   -0.37800258752618      3.11380780852186      8.87368544941638
  C   -1.52031351763896      1.21404852432614      7.10511246590741
  H   -1.54939625792698      0.34490901413813      6.44243064586999
  H   -1.81728366114977      2.10736442859076      6.54499075063666
  H   -2.21058389849709      1.05768556001400      7.94113710928938
  S   3.97132424078732      0.78584185096713     10.77141454420302
  O   4.52671985705498      0.21847865080913      9.43821224443390
  O   2.70107815813720      0.14207109342907     11.15131260099970
  O   4.01368771586124      2.25882248110919     10.78350129030429
  C   5.23151573660648      0.21142761451428     11.92341196812910
  H   6.19842153182374      0.64431694251242     11.64738327030548
  H   5.27374158663463     -0.88224071614128     11.89779661684755
  H   4.94637566076095      0.55107980515398     12.92450015529598
  N   3.01344418904798     -1.76296108311163      8.02087587634878
  N   1.96797844732967     -3.39180919903909      9.07876681866243
  C   2.47766103263464     -2.13879706619359      9.18474448648840
  H   2.42704756333790     -1.52008690397929     10.07638411042399
  C   2.83907401003563     -2.81020223183814      7.13420278787304
  H   3.18672791955305     -2.73723168563746      6.11338397444432
  C   2.19319608121339     -3.83487556391295      7.77996807845034
  H   1.88032246998578     -4.81677979720288      7.45223275898997
  C   1.29713439689284     -4.13669288581364     10.14861045685408
  H   1.25786866336069     -3.50320981490732     11.03843313682100
  H   0.27860630375742     -4.39539250041727      9.83966137386831
  H   1.85646679199405     -5.05111746411501     10.37458467892162
  N   5.77496756996853     -0.83255708411124      7.24676184865230
  N   7.81524332977017     -1.62046435348538      7.56809851657368
  C   6.73759678476289     -1.02910576453715      8.14562603360551
  H   6.67458449884328     -0.75554758698219      9.18846997560159
  C   6.24904090269115     -1.31389776027812      6.04148651715346
  H   5.64007011898148     -1.26344677959136      5.14956101833100
  C   7.51712174418463     -1.80827291788267      6.22364007655432
  H   8.22324613456192     -2.26768070396314      5.54551724530517
  C   9.06490429627196     -1.99093320261422      8.23870095662477
  H   8.98669001207886     -1.72077229144521      9.29507809606211
  H   9.22893341157121     -3.07026261884465      8.15075098349069
  H   9.90462224902328     -1.45192640728039      7.78697336026856
  O   3.51016410764940     -0.15345233319764      5.98251123035536
