63
Coordinates from ORCA-job DEDKII-CH3OH_1_5_tpss_d4_lanl2dz_631gpol_Fe2.opt
  Fe  3.85920644026576      0.16538451897716      7.54121942801457
  N   4.73655206492397      2.08557107283414      7.02555538930827
  N   5.93928246560936      3.64982415604952      6.00593549126269
  C   5.30100051566523      2.45408386967576      5.87689375992931
  H   5.25668227526411      1.89912791923809      4.95008278841071
  C   5.02593360088568      3.08873289554475      7.93978532083515
  H   4.65354664845233      3.03789565741356      8.95625387542222
  C   5.76909495306649      4.06459291694853      7.31936404988547
  H   6.18254134309281      4.99840618803846      7.67547238505616
  C   6.65864855750924      4.36840125246387      4.95274356710485
  H   6.61193391581697      3.77896645715442      4.03283113503536
  H   7.70655906857890      4.50607532337359      5.24135383587810
  H   6.19466310717087      5.34567519989956      4.77954371670172
  N   1.84098505256538      1.15578681654482      7.33407632505882
  N   -0.07239817933960      1.39336891159512      8.44055023891453
  C   0.77087584779079      0.52544385264505      7.83721610193145
  H   0.59571568479601     -0.53980078435793      7.79519665185276
  C   1.65779623017718      2.50086305914706      7.63880454783776
  H   2.39210482891749      3.24190506678489      7.36011327804881
  C   0.48454853201873      2.65875894966722      8.32725010183899
  H   0.00756008604916      3.52694771989483      8.75955225226186
  C   -1.22391713127358      1.03284065959139      9.27049500626118
  H   -1.61551930940049      0.06852819070636      8.93385901690461
  H   -2.00162149685057      1.79437380928106      9.16156578613133
  H   -0.90325682823509      0.96073858390490     10.31525695410455
  S   3.18752805262997      0.94323559998931     10.58219344049938
  O   4.12233449086503      0.30691274808576      9.52712158388979
  O   1.87297734812974      0.25769911922207     10.60772233359356
  O   3.17448544468828      2.41031050419599     10.48533076813843
  C   4.03147702278308      0.50913963135126     12.11240331183079
  H   5.03084792294983      0.95544771112958     12.10493373476120
  H   4.09913878740877     -0.58047855203154     12.19300310764543
  H   3.44972089136172      0.91171576179963     12.94802886932776
  N   3.07117387747911     -1.86003248888544      7.78737030661473
  N   2.35045462257922     -3.58892879976721      8.98319468942897
  C   2.38951732953236     -2.23302398405124      8.87413176699210
  H   1.97337221065066     -1.54904836167186      9.60990489297867
  C   3.49216398571167     -3.03308261571180      7.18153278805987
  H   4.09791998224133     -3.01955367170840      6.28604842156986
  C   3.04780607069123     -4.11372132251168      7.90448599720410
  H   3.15592703984526     -5.18034215259332      7.76138907614713
  C   1.68679390066665     -4.34755651913172     10.04652644475467
  H   1.30458050534742     -3.64105136395031     10.78829307158953
  H   0.85518659709560     -4.92945337540104      9.63344400300394
  H   2.40401312037768     -5.02285394650791     10.52531447279252
  N   5.79229214412097     -0.73158771549787      7.19391670380607
  N   7.73956668652680     -1.66361505046226      7.71228371773779
  C   6.57292703750930     -1.14455415784729      8.18866129050451
  H   6.32834795493361     -1.07339606518605      9.24006675713688
  C   6.48472386536846     -0.99448970103623      6.02670590145978
  H   6.06912602759695     -0.74501138525598      5.05962513667115
  C   7.69517382526354     -1.57424055044281      6.32982617557511
  H   8.51159886486323     -1.92337509646925      5.71227605930148
  C   8.84310258906548     -2.19862915439229      8.51383250023532
  H   8.56316562228536     -2.14645578971437      9.56942456193200
  H   9.03264101531683     -3.24223939555866      8.24034804465111
  H   9.74882718180722     -1.60453957622286      8.34988425480152
  O   3.40004210386235      0.16867750694659      5.26840362301825
  C   2.86323577919612     -0.94602921047991      4.52159176126667
  H   2.16851800780126     -1.53625042760320      5.13235555852806
  H   2.36018550785173     -0.58474676858323      3.61561729337983
  H   3.71511835529147     -1.56910095689718      4.23540893256912
  H   2.63609995478715      0.71903730983657      5.58371764261094
