32
Coordinates from ORCA-job CAFNIG-CH3OH_0_4_tpss_d4_lanl2dz_631gpol_Fe3.opt
  Fe  0.10413700867158      2.94919578938588      3.28445293420354
  Cl  2.53002317627020      3.21789447819000      3.56250052756299
  Cl  0.27880416157885      0.71405842393779      3.23365678602700
  N   0.05655671274380      4.95406562789710      3.33380766197406
  C   0.81087960315671      5.68366901088244      2.48098867485901
  C   0.81585894157662      7.07716153874819      2.51321611463517
  C   0.03228459690648      7.73801209651072      3.46592305991083
  N   0.21125601139896      2.94653993247220      1.20587859169206
  C   -0.78962293108547      3.46980093619448      0.46438035332699
  C   -0.75945113125278      3.44745096674496     -0.93058923102306
  C   0.33759617793177      2.86441797579512     -1.57558324216767
  C   1.36630820052182      2.31807523383556     -0.80018270355669
  C   1.26916538311990      2.37063094373253      0.59128931874441
  H   1.42857966280182      5.11994835365618      1.79069928471257
  H   1.43500153331254      7.62409975015937      1.80669788622440
  H   0.02098348249013      8.82513498834008      3.51650403246952
  H   -1.62224716357608      3.88575070385997      1.02643432113527
  H   -1.58640385922100      3.87612749946727     -1.49157900648020
  H   0.38650932008260      2.83111763619170     -2.66254069509838
  H   2.23369746357188      1.84830987862355     -1.25741860061717
  H   2.03115554430045      1.96487351286471      1.25110910754610
  Cl  -2.25835711122549      2.96131296255237      3.42569387136029
  C   -0.69818817232318      5.58385946184451      4.26114318239188
  C   -0.73080971372354      6.97545199977984      4.35586429666627
  O   0.21155192791418      2.99219012696458      5.43111351701684
  H   -1.27780227055987      4.93914964516546      4.91166570893195
  H   -1.35076435269440      7.44147282492722      5.11753172311075
  C   -0.40579658194994      1.92703124785866      6.20936791460716
  H   0.06183319050932      0.96441053521093      5.98216171564772
  H   -0.31166638700986      2.17787579224157      7.27342249707700
  H   -1.45378908713582      1.91077696520270      5.90391859937368
  H   1.19550666289779      2.92268316076218      5.49376179773559
