27
Coordinates from ORCA-job CAFNIG-oxo_0_4_tpss_d4_lanl2dz_631gpol_Fe3.opt
  Fe  -0.17488250211291      2.90110668060554      3.55069706880022
  Cl  2.12304725216500      2.94595464278131      3.72035851164714
  Cl  -0.25902124495494      0.67018216398374      3.43280982234252
  N   -0.07389871515618      4.93876008699391      3.53205799389306
  C   0.78504604629333      5.61742301419767      2.74222234446274
  C   0.84583441950881      7.01081707133238      2.75740021482534
  C   0.01076135198907      7.71858745072677      3.62841953592381
  N   0.08352247789810      2.92762465858420      1.44481008364837
  C   -0.65950889186850      3.72819427560459      0.64771137108815
  C   -0.51925676518496      3.73788590609613     -0.74021774671393
  C   0.41526435154429      2.88179607945294     -1.33243665502417
  C   1.17943443632480      2.04981523792383     -0.50784879523342
  C   0.98886573052507      2.10059187645638      0.87374006220688
  H   1.43722796652531      5.01565812093843      2.11830841653511
  H   1.54934753556733      7.51933336854044      2.10314526236436
  H   0.04345134918548      8.80568665092349      3.66574886198637
  H   -1.38963141817027      4.35244228721270      1.15392959783457
  H   -1.14229293715503      4.40013678079727     -1.33640454903436
  H   0.54218571149883      2.86073938096360     -2.41331207473804
  H   1.91578431166452      1.36357018154457     -0.91848674818879
  H   1.55845259398991      1.47859358910134      1.55652670887706
  Cl  -2.43352650241287      3.13462078195329      3.17444833169065
  C   -0.87818365256575      5.61090956435549      4.38406353437772
  C   -0.85861739024603      7.00342988610269      4.45880411841985
  O   -0.37996600310580      2.92766979760037      5.18195583837317
  H   -1.53334087459279      5.00004774995124      4.99681729756156
  H   -1.51899863715382      7.50632271527558      5.16043159207402
