56
Coordinates from ORCA-job BOKGUG-OH_1_5_tpss_d4_lanl2dz_631gpol_Co2.opt
  Co  15.09861342014671      5.12109033105720      7.93795406826060
  O   14.76117796441661      6.54414165139899      6.86534174038189
  O   14.95804581334104      6.18788980632698      9.69406882306402
  O   13.95769232917707      7.64110600740394     11.72774279217160
  H   13.71271371699051      8.27904448820595     12.42813716989096
  O   13.00202090125208      4.60664257527951      8.08490873740351
  O   10.68899856462045      3.21278244434922      7.87256472497989
  H   9.79481524400562      2.81883258180658      7.92471467832915
  N   17.03668804426112      7.16391790145069      9.94355881119385
  H   17.34867856149423      6.54038033500985      9.15963443347873
  N   12.51522651259178      5.16457197792103     10.27270121524768
  H   13.41636616830955      5.68358791837513     10.27335930026046
  C   15.72683183120956      7.01691055854373     10.30110131565344
  C   15.26874933925528      7.83400256372418     11.39046570709594
  C   16.13336644013742      8.72688423613066     12.00293674905545
  H   15.77898297567756      9.35075395048416     12.82345440708540
  C   17.47519584606398      8.83526501938340     11.56659824503448
  H   18.15621069004641      9.53525667610808     12.03971910357236
  C   17.90546871066812      8.03436515567121     10.53132293860214
  H   18.91088138358196      8.03309856903185     10.12680314069573
  C   12.21827793431193      4.53543242996658      9.09309638491563
  C   10.96731169921063      3.82336696569448      9.06697051379699
  C   10.14964155150293      3.79751385967581     10.18232607717460
  H   9.20463588895677      3.25475561750785     10.14955266617959
  C   10.53174586758633      4.47054218189313     11.36953234966264
  H   9.89553306791551      4.44943852032321     12.24824203810259
  C   11.72649730717970      5.15060045222177     11.38750548599083
  H   12.11615843789524      5.69672990631246     12.23845002984635
  Cl  15.52703722144080      3.06642225247761      8.92189711610527
  O   15.26876284680375      4.03489495471408      6.01095077596834
  O   16.32906601799167      2.41780325917030      4.13021449302788
  H   16.54322690822140      1.80394425812522      3.39880114532939
  O   17.22260844279788      5.47192871614936      7.87966776769441
  O   19.57596051530329      5.53306645085531      9.21828163149758
  H   20.43965839339386      5.39202255903382      9.65554036724946
  N   13.39290808671172      2.69032832291865      6.17938147322693
  H   13.05825363333643      3.34282184980764      6.92370560542732
  N   17.94093794796167      3.69916178263881      6.60126330819931
  H   16.99448015380868      3.72871958682672      6.16498041299685
  C   14.61173825699017      2.99540838893248      5.63978334823647
  C   15.09587283952164      2.09032494457214      4.63320825691887
  C   14.34054436860822      0.99691139257406      4.24753513600660
  H   14.71609847003631      0.31917919596026      3.48052953104501
  C   13.08432503210990      0.74901070536066      4.85182201969648
  H   12.48807913844410     -0.10917574634669      4.55936401191224
  C   12.63432360862685      1.61272326031212      5.82348693400634
  H   11.69833308924810      1.51185270352639      6.35843465206742
  C   18.13850709854112      4.62290095928234      7.58879570131487
  C   19.41612323965962      4.58639741301713      8.24169289384299
  C   20.36190858662108      3.64456108667469      7.87484420623912
  H   21.32682023441725      3.61638663487396      8.38128779533353
  C   20.07701352251370      2.70645734273455      6.85316209704161
  H   20.81078651414210      1.96000094794856      6.56694769250425
  C   18.85067936729891      2.75317353788847      6.22991400257014
  H   18.52772257382476      2.08095773413133      5.44422651493745
  H   14.80894767981720      6.29179082458196      5.91721746247652
