55
Coordinates from ORCA-job BOKGUG-oxo_1_2_tpss_d4_lanl2dz_631gpol_Co2.opt
  Co  15.17377559670167      4.71817717602901      8.24109695661670
  O   14.44396198458153      6.02657653684482      7.55399624154307
  O   15.05922089713622      5.65080147255830     10.10460634074081
  O   14.11072704414262      6.85610498390533     12.28699521856317
  H   13.91882304720925      7.28760807533057     13.14386012590361
  O   13.32022951096069      3.88477549007312      8.74799975575649
  O   10.89503901319657      3.08782872660516      7.85746430667221
  H   9.96542156486889      2.92850670460732      7.59732560000328
  N   17.11221623951418      6.70267433256746     10.32662461114684
  H   17.38369544423355      6.24627716591215      9.42988682497839
  N   12.37061905605814      5.61671442146995      9.93194726789807
  H   13.34523401719197      5.82593130718616     10.23583386870106
  C   15.83659144840456      6.44750848921000     10.73881536070297
  C   15.40947770870241      7.11696273242694     11.93901804092693
  C   16.27906233212560      7.94315063460268     12.62617601958365
  H   15.95066490647057      8.44268072078824     13.53759773044539
  C   17.59596425524500      8.15085759610157     12.14361925082990
  H   18.28319943073423      8.80241168967662     12.67334388711371
  C   17.98548034794030      7.52421442243384     10.98383597867293
  H   18.95792776538588      7.63259581555139     10.52037045446687
  C   12.27223546546330      4.53944638016155      9.09761019746358
  C   10.94668845710435      4.17873694540144      8.67877608597299
  C   9.85737363627933      4.92010167093601      9.10696354047963
  H   8.85372688099273      4.65001580727497      8.77850083346930
  C   10.04034532632104      6.03596615047969      9.95985387494723
  H   9.19041247988230      6.62322401021717     10.29191046691710
  C   11.31487792638677      6.36517695025545     10.36291725082474
  H   11.56323604199459      7.19438581422275     11.01504128837456
  Cl  16.16778847819367      2.89745410828820      9.11449854899102
  O   15.13398746051548      3.72527235976398      6.37064193152717
  O   16.02808491473549      2.38796755765686      4.20216745241115
  H   16.17256655753201      1.84664811776844      3.39990446353787
  O   17.07727927715441      5.49428126276835      7.88713005041706
  O   19.60935159790947      5.91125303322721      8.73769511859244
  H   20.56058463422225      5.91712902923173      8.96597428260909
  N   13.66682345264926      2.00548813921536      6.87866857439025
  H   13.36352520928903      2.59042794683992      7.68822015235539
  N   17.82144473304395      4.03839852156753      6.25184383862645
  H   16.81414129395484      3.87661432103587      6.03220878070572
  C   14.63973251919276      2.56668691432451      6.10402873472574
  C   15.05042044779626      1.79832380260806      4.96125235258399
  C   14.46931027850035      0.57004916024766      4.69736107165150
  H   14.79013429818088     -0.00521713716560      3.82865496628257
  C   13.46602756209769      0.05231564320032      5.55183169792131
  H   13.01165077539617     -0.91288511997266      5.35363207411048
  C   13.08100714187894      0.79657119972433      6.64312622799489
  H   12.32494348920859      0.49690148338490      7.35976240468251
  C   18.04595584503827      4.88368315159885      7.29964479525811
  C   19.41813440766113      5.06560967036256      7.67814701513478
  C   20.42679134130330      4.40779939526555      6.99516919668849
  H   21.46548939261589      4.54827283609155      7.29453014211370
  C   20.11491088348251      3.53998986719848      5.92214371018890
  H   20.89945043077633      3.01400396399528      5.38808137053967
  C   18.79521097382672      3.36586278640669      5.57340121943777
  H   18.44232477861474      2.71398576253601      4.78399244680619
