56
Coordinates from ORCA-job BOKGUG-OH_1_1_tpss_d4_lanl2dz_631gpol_Co2.opt
  Co  15.04199008433658      4.31892289676232      8.29383542127833
  O   14.85644380106496      5.90453237908390      7.30134453037199
  O   14.82909849228963      5.42117867512973      9.83491479920449
  O   14.87981620195392      7.84477996954943     10.96549331485663
  H   15.00947899391340      8.67050116485908     11.47456679790950
  O   13.14368194056888      3.97261843096436      8.32755401546133
  O   10.77439346996662      3.19439102686057      9.34259840094864
  H   9.90432664653997      3.06017494227022      9.76981623113907
  N   16.62187070891358      4.71110318247325     11.13286208939474
  H   16.52691234204378      3.79535553337020     10.65416238364257
  N   12.55655152865778      6.19565990994080      8.49232069603811
  H   13.52673864555070      6.33995819888082      8.02953388949740
  C   15.72454175644024      5.65634398216378     10.72498945091361
  C   15.79963269418860      6.93072421730264     11.38488938042702
  C   16.76190692629949      7.14672611917175     12.35989076391701
  H   16.82461160370613      8.11876452232838     12.84980978862854
  C   17.67389306011806      6.12342122653183     12.71234962205005
  H   18.43032989457408      6.29252114166413     13.47202055138719
  C   17.58516392054578      4.90490185663648     12.07770469456465
  H   18.23325814961114      4.05803428398785     12.27391405908166
  C   12.27991715725222      4.87706253856885      8.67120523854420
  C   11.00744544093517      4.53348917638500      9.22648599858919
  C   10.13372696599903      5.54832176910016      9.59283588557089
  H   9.16775243267322      5.29824568240343     10.03170391109555
  C   10.49488123441184      6.90469902878539      9.41709876722470
  H   9.81651911171219      7.69924795909245      9.71176148950894
  C   11.72129456116031      7.20366608816983      8.85997117200177
  H   12.08670555372770      8.21001540089779      8.68619605415202
  Cl  15.39231139316315      2.35084321023604      9.51188557162564
  O   15.15523968182844      3.36947010781366      6.59283235174088
  O   16.45884496823736      1.85039956957821      4.83142564944698
  H   16.87934081610181      1.17536375480648      4.26158968960042
  O   16.92220621873590      4.64776941377708      8.41223994997586
  O   18.89809668817780      6.34672887726926      9.00271724388933
  H   19.66819374195320      6.94627374095355      9.07429181454471
  N   13.64128001196417      1.66498506825825      7.04089514703434
  H   13.21077288246941      2.31281599391990      7.72782378958829
  N   17.51736695982075      4.62738703363407      6.17093290798818
  H   16.71871644463222      3.98360078150087      6.02960632708998
  C   14.73216910929270      2.16244845363976      6.39219580302894
  C   15.37721223189989      1.29479620988669      5.45702556050046
  C   14.89927824531368      0.00761886516147      5.26348409947320
  H   15.40176794529181     -0.65965211257234      4.56357526881215
  C   13.77588215475972     -0.45219769737351      5.98928412605975
  H   13.40430223710059     -1.46238145549177      5.85219950111808
  C   13.16187288775458      0.39849038365594      6.88197314761291
  H   12.30723005733686      0.13714462983216      7.49542390003568
  C   17.67478106202848      5.05491954953279      7.46063102617407
  C   18.77742236589301      5.94582111210992      7.70613590207736
  C   19.60432489983099      6.32508151479102      6.66109844737949
  H   20.43203865298274      7.00971819861240      6.84677563855106
  C   19.37282450872408      5.84611831870024      5.34715754905105
  H   20.01737123038550      6.14697213521158      4.52755073720477
  C   18.31549205230236      4.99544691190674      5.12416909931440
  H   18.05160954737799      4.57645321276586      4.15951723220648
  H   14.55641768548214      5.58108291454815      6.42343312147384
