56
Coordinates from ORCA-job BOKGUG-OH_1_3_tpss_d4_lanl2dz_631gpol_Co2.opt
  Co  15.15236825838042      4.88232667284859      7.94970459609739
  O   15.34094637323946      6.14900285758479      6.72911880208213
  O   15.08256614661922      6.36401348206701      9.50169041094373
  O   14.13376549390187      7.70451994874763     11.66466975071687
  H   13.96583182683552      8.21165640337250     12.48443109477739
  O   13.13674352653327      4.78947292662800      7.64829315958815
  O   10.73283554602956      3.68182113056400      7.32242853279467
  H   9.79465231394452      3.40914484209142      7.26888405475382
  N   17.07716064406429      5.95006363077824     10.58615810304185
  H   17.36481205773742      5.46296281401210      9.71179631634455
  N   12.42175852573776      5.94632579601454      9.53355807863792
  H   13.40908018945229      6.28127002692096      9.65078859668463
  C   15.81606040162535      6.47587664765424     10.54783123027038
  C   15.39691845873508      7.17606369904750     11.73192572816281
  C   16.24455844537169      7.28200172984259     12.82067625770623
  H   15.91452900073204      7.81253364666053     13.71420659452462
  C   17.53684733305191      6.70302128678837     12.78485343520760
  H   18.20309049036718      6.77966689950317     13.63787344115926
  C   17.93066167203045      6.03886261161619     11.64648644656903
  H   18.89506806554794      5.56245614830272     11.51179049958284
  C   12.20897328672097      5.09733766724975      8.48741735441599
  C   10.88132231728379      4.56567735458545      8.35931643824144
  C   9.88621309082933      4.94361282452094      9.24291259744371
  H   8.87989625437037      4.53864411533427      9.13573148669263
  C   10.17638077789298      5.84366714188147     10.29666388224740
  H   9.40462019428560      6.14232885818582     10.99865680926531
  C   11.45945899528953      6.32293618611783     10.42670627530706
  H   11.79563728244586      6.99262252739944     11.20815638733568
  Cl  14.92684731977155      3.29344248624630      9.55461430052731
  O   15.22896762180980      3.48609873607246      6.32780088426893
  O   16.64590065715583      1.35577670492886      5.45018141517733
  H   17.05260330338846      0.49837663923885      5.21222631384279
  O   17.17927939490835      4.80030096081918      8.15989051761554
  O   19.53931043927048      6.02261058880655      8.58929204836959
  H   20.41485452581493      6.45920149352974      8.59377232461511
  N   13.40969073144266      2.15559369248184      6.77014691665928
  H   12.96568236122266      3.03126842531362      7.09880566759917
  N   17.76954882639916      4.30043112337792      5.98622189379903
  H   16.83590840508873      3.83455077739594      5.92008393255559
  C   14.69441265255560      2.31900454790839      6.33741095317056
  C   15.36992412799867      1.13616311342187      5.88899781131584
  C   14.72431130755423     -0.08875102294307      5.92951155975809
  H   15.24318667532336     -0.98840576763917      5.59853326615924
  C   13.39656722192781     -0.18298236179530      6.41416031700609
  H   12.89129212846138     -1.14229554360840      6.45797192969181
  C   12.75561182795698      0.96065997356413      6.83369876623174
  H   11.74664982432318      0.99666743913077      7.22712222577972
  C   18.03226094441081      4.86394008650892      7.20125390815998
  C   19.31693042990586      5.48637041904080      7.35168504482259
  C   20.20774594696735      5.50513075172840      6.29109995093731
  H   21.17816729834871      5.98832030044500      6.40514034975777
  C   19.86102168429672      4.90931180600186      5.05401297474346
  H   20.55335968459910      4.92626479218231      4.21854741373232
  C   18.62938481341492      4.30687131725227      4.92730899000577
  H   18.27122490391558      3.82020369519736      4.02695434649338
  H   14.65384797270879      5.95486494907172      6.05052761660803
