52
Coordinates from ORCA-job ATOFOG-CH3OH_2_6_tpss_d4_lanl2dz_631gpol_Fe3.opt
  Fe  -2.85143590430468      1.71480132315753      2.82912747943360
  Cl  -3.84456800681417     -0.07390658956326      1.86222723940151
  O   -4.60721059129577      2.84121455555353      2.35458779345674
  N   -1.87042304909136      2.37073534249602      1.06606283381981
  N   -0.93426163268636      0.80894210317137      3.05527262955261
  N   -3.47465338810987      1.27264727761418      4.82330160294534
  N   -2.15034640120305      3.43479062802037      3.92920190778453
  C   -2.38919620221127      3.12015993080820      0.08088236570021
  H   -3.38372500223888      3.52105996887850      0.25843839823194
  C   -1.68975136352267      3.36784609551708     -1.11530330856688
  H   -2.15055871081467      3.97858032488816     -1.88698786504809
  C   -0.42398445646537      2.82076596480047     -1.29026011827792
  H   0.13320514701923      2.99784925973821     -2.20832472959084
  C   0.14358386694535      2.01670038686359     -0.26872367949998
  C   -0.63192912747142      1.81602243963988      0.90407050356905
  C   1.43608112223333      1.39656009376655     -0.36343561025763
  H   2.02522774105793      1.55329624691265     -1.26444069536775
  C   1.91890680640973      0.61304058442411      0.65473890322227
  H   2.89599224126496      0.14211336435567      0.57111065933555
  C   1.14597257705764      0.38500145293648      1.84437410078535
  C   -0.13218915655396      0.99336808466798      1.96378973363745
  C   1.57647935689265     -0.43250866633668      2.92033897894596
  H   2.54748528732779     -0.92164464488427      2.87143089641727
  C   0.75021391082266     -0.60910978671724      4.02329428514188
  H   1.05193981396284     -1.23674213013232      4.85745170025669
  C   -0.50543219467393      0.02659729887320      4.05498839244118
  H   -1.18348630840845     -0.10342168696928      4.89382601039498
  C   -1.47225839631304      4.49151430462934      3.45741551225065
  H   -1.29207541723609      4.50868121097733      2.38615533217129
  C   -1.01898038811047      5.53283891165526      4.29054784949061
  H   -0.47585020437879      6.36769791040098      3.85574352938531
  C   -1.28000266015329      5.47720178733966      5.65384837629641
  H   -0.94488749676630      6.27309004955691      6.31640565082937
  C   -1.99191560316598      4.37162594477336      6.18579206399706
  C   -2.40229171708397      3.36450829143900      5.27114023502492
  C   -2.31652420368268      4.22566680738005      7.57777734199766
  H   -1.99970073402266      5.00160015958522      8.27143730553212
  C   -3.01566605269586      3.13411975492717      8.02960724562140
  H   -3.26097001642425      3.03587963341234      9.08496635989049
  C   -3.43639948222413      2.09979486888504      7.12534878064917
  C   -3.12026292397675      2.21954108305929      5.74580835135452
  C   -4.15869616183973      0.94544444097507      7.52595145257361
  H   -4.42477540096196      0.81237136369030      8.57303257961360
  C   -4.52051436079038     -0.00396545751004      6.57781216319454
  H   -5.07658118206198     -0.89513447205469      6.85652764812844
  C   -4.16023352762341      0.18927682808760      5.23019496603442
  H   -4.41858899528517     -0.53147926673621      4.45820441056284
  C   -5.29797544416141      3.83371472516910      3.18176550806634
  H   -6.11849959567218      4.26471234135940      2.60137170626537
  H   -5.67079888670863      3.36250823193412      4.09739967982983
  H   -4.55604841333084      4.59802150344483      3.41433693112988
  H   -5.25722911045806      2.19246982113865      2.00331861224494
