52
Coordinates from ORCA-job ATOFOG-CH3OH_2_2_tpss_d4_lanl2dz_631gpol_Fe3.opt
  Fe  -2.68136366669275      1.86601157457565      2.89729775283137
  Cl  -3.50610552135527      0.05114455049615      1.85890415728304
  O   -4.40926925106958      2.76735396912799      2.41962911165391
  N   -1.92584591520331      2.40610266373165      1.16795674046983
  N   -0.96325877260700      0.98935231620398      3.12974106360262
  N   -3.41659042095055      1.35932169582100      4.66567472443178
  N   -1.98943155942690      3.41516881540442      3.88773612926786
  C   -2.49396770418691      3.12813404206285      0.19030268932152
  H   -3.47716525219206      3.53740241318639      0.40062294204627
  C   -1.84214328714498      3.33666476557012     -1.04173135958035
  H   -2.33942660025590      3.93038619019413     -1.80401904199713
  C   -0.58923509420257      2.77822615231468     -1.27344584404319
  H   -0.08584872025980      2.92586591907744     -2.22681757819393
  C   0.02633686260903      2.00444074930281     -0.25791733444444
  C   -0.69487055179074      1.85394984981371      0.95075228086575
  C   1.30806523017997      1.35930468017319     -0.36344863040812
  H   1.87035587486588      1.46605240068691     -1.28850970816914
  C   1.81726329154934      0.61409694522611      0.67293712852094
  H   2.78518599153467      0.12779698844120      0.57366044434105
  C   1.08901779959885      0.44943144706867      1.90305423489353
  C   -0.17197377403493      1.08355670028591      2.01852402155993
  C   1.52376271414296     -0.31083133759443      3.01668974785154
  H   2.48102464377208     -0.82719924738102      2.98447161540551
  C   0.71197310798241     -0.39593015583347      4.14285617186628
  H   1.01602790634837     -0.97753650153159      5.00889016887871
  C   -0.53198657096380      0.26382411661369      4.17216856067293
  H   -1.19012361257603      0.19404118633632      5.03123580486061
  C   -1.24534868217587      4.43586214259970      3.43245459889556
  H   -1.00951155913648      4.43400281204869      2.37317636474023
  C   -0.80047650820355      5.46539484585720      4.28474108789290
  H   -0.20668168297436      6.27417238220984      3.86730894737252
  C   -1.12187304669544      5.43739746617616      5.63753973610908
  H   -0.78160625239218      6.22751760531800      6.30403369238251
  C   -1.89999560357544      4.36718639239747      6.14637657692359
  C   -2.30663956939227      3.37516836877036      5.21925947857456
  C   -2.30396043783709      4.22006841890578      7.51902175992436
  H   -1.99610201043217      4.97748173125229      8.23663812525333
  C   -3.06545359703610      3.15065616314541      7.92513352172947
  H   -3.36537525693230      3.05654948296974      8.96662227675204
  C   -3.48344363961246      2.13611512826175      6.99458223021856
  C   -3.08565051642919      2.26442288215186      5.64069487523185
  C   -4.27191989263687      1.00406053842058      7.32451917592544
  H   -4.60701544365088      0.85350918029997      8.34893255803318
  C   -4.60712633375194      0.09492807728001      6.32800573714987
  H   -5.20902758792558     -0.78256105560958      6.54934906883627
  C   -4.16468305178748      0.29511853961822      5.00350992265676
  H   -4.39876591492316     -0.40184272190596      4.20311276047827
  C   -5.29538825830112      3.46299235192669      3.35822748229952
  H   -6.11232522750351      3.90278380056822      2.77928078453359
  H   -5.67911516053911      2.76804301015331      4.11095340439597
  H   -4.69154028541865      4.24666950162490      3.81715500386387
  H   -4.89717162840715      2.02463006618477      1.98510483603785
