48
Coordinates from ORCA-job ATOFOG-OH_2_3_tpss_d4_lanl2dz_631gpol_Fe3.opt
  Fe  -3.02783110568525      1.84440208763233      2.86794064096843
  Cl  -3.63402869298350     -0.04765008165168      1.88315781602709
  O   -4.52337707095587      2.70035847960772      2.52720661299994
  N   -2.25523100526081      2.35742307632866      1.13556470434415
  N   -1.19123724374074      1.04749841414740      3.15350641891827
  N   -3.63050292625354      1.26267249521914      4.66001129083281
  N   -2.31153199360093      3.40242960110560      3.85334976387888
  C   -2.90002956233883      2.95035941764737      0.12173497805242
  H   -3.93752302848714      3.21691129424124      0.30242745522207
  C   -2.25099798189807      3.18856420603070     -1.10763642465960
  H   -2.80515938417612      3.67626007184978     -1.90517835840305
  C   -0.93084287356677      2.79230715021153     -1.28853464966096
  H   -0.42687439181158      2.96704873323689     -2.23703386310760
  C   -0.24617556038650      2.13554331708328     -0.23370363495938
  C   -0.96711894420951      1.93711269958965      0.96903049053551
  C   1.10159383026142      1.63805669574365     -0.30120465242628
  H   1.66737142707330      1.78922587073273     -1.21794870595543
  C   1.66663906351116      0.96797486139196      0.75743942428084
  H   2.68256851584844      0.58612770920420      0.68403959572261
  C   0.93157010995642      0.73440868575948      1.97166231703317
  C   -0.39005597271006      1.23844691067910      2.06106338242476
  C   1.41688493134990      0.01177666427909      3.09021083270694
  H   2.42318807643644     -0.40216748772469      3.07612190865070
  C   0.59096692900425     -0.17604662922849      4.19288521937572
  H   0.93015164295234     -0.73933504011160      5.05802406623210
  C   -0.71531261469574      0.35099869670395      4.19459906556839
  H   -1.38537564138166      0.19570759377177      5.03334343868717
  C   -1.63101223890407      4.45901589497156      3.38238880326998
  H   -1.45999827150635      4.49306821987206      2.31084379096423
  C   -1.17176973061679      5.47774935247361      4.23979547057860
  H   -0.62870930362321      6.31821248587301      3.81595942804586
  C   -1.42540827931467      5.40339910683534      5.60580674679523
  H   -1.08105921219918      6.19003012647532      6.27447071384983
  C   -2.14371671408860      4.29666104677542      6.12683007054340
  C   -2.55987039761907      3.31100717594391      5.19648497653126
  C   -2.48440232348203      4.11190999824036      7.51127104170932
  H   -2.17045504208953      4.86490394396869      8.23079978356422
  C   -3.20300220904020      3.01518693691374      7.92533148711004
  H   -3.46371478419985      2.89668260227145      8.97481541612656
  C   -3.63017590760513      2.00735679740862      6.99237610739703
  C   -3.28499780580941      2.16708123504908      5.62807506264056
  C   -4.38716205581392      0.85390747418984      7.32899143494117
  H   -4.68506623444284      0.68224494712580      8.36158904932856
  C   -4.74903206967916     -0.04244662196893      6.33070084041480
  H   -5.33782161727369     -0.92744735781459      6.55684661627491
  C   -4.35531304829392      0.18469721690982      4.99448662371595
  H   -4.61601729654061     -0.49406885997268      4.18722026661342
  H   -4.59280399010867      3.57566278497765      2.97449713629513
