47
Coordinates from ORCA-job ATOFOG-oxo_2_2_tpss_d4_lanl2dz_631gpol_Fe3.opt
  Fe  -3.05402119455207      1.84807763461005      2.85623206284068
  Cl  -3.42952393763090     -0.16326112803796      2.00574242954709
  O   -4.39766740624701      2.66701451816580      2.57718928225819
  N   -2.25873129182279      2.35437423337835      1.14197416069343
  N   -1.13187789626867      1.06193604036315      3.15850196032081
  N   -3.68019819913529      1.26836675507318      4.65677300581478
  N   -2.26090445252382      3.34098275066795      3.86136746894795
  C   -2.90609914411533      2.97440741610429      0.14191340204671
  H   -3.93471658405749      3.26429057706766      0.33745934337045
  C   -2.27207995729696      3.22172532811436     -1.09088162767923
  H   -2.83063223039266      3.72621741566880     -1.87482824499129
  C   -0.95725787294795      2.81406075809406     -1.29068442015838
  H   -0.46187772057933      2.99387640736819     -2.24291539443515
  C   -0.26376760058781      2.14828801301399     -0.24790427804888
  C   -0.96943019024615      1.93783195569624      0.96331083573754
  C   1.08581254910976      1.66133394703170     -0.34006290150182
  H   1.63409872533394      1.81970808802471     -1.26627425494705
  C   1.67671776429868      0.99643689943082      0.70938492045474
  H   2.69637036250606      0.62815644150346      0.61854439713631
  C   0.96551977852396      0.76038884942035      1.93536125314168
  C   -0.36138669512344      1.24878107276165      2.04932065158703
  C   1.48445661314471      0.05494925773501      3.05133655390496
  H   2.49538488404582     -0.34664833524994      3.01811407614212
  C   0.68653883987795     -0.13033003331215      4.17373457260804
  H   1.05180147497574     -0.67962176968510      5.03740381658631
  C   -0.62732628658548      0.38223491698871      4.19411737861382
  H   -1.28192227451723      0.22849577187987      5.04685059114828
  C   -1.54266202122963      4.36470109768871      3.38150029387633
  H   -1.34679028193342      4.37702804402264      2.31496333617149
  C   -1.08201863056305      5.38839587018977      4.23225555488636
  H   -0.51396610168526      6.20921062042140      3.80251832260299
  C   -1.36695453495281      5.34528019960128      5.59300665455395
  H   -1.01615775524360      6.13440266473046      6.25534540984544
  C   -2.12751404377491      4.26926202167965      6.11462955474103
  C   -2.55406756271005      3.27971043113572      5.19264094983092
  C   -2.51018284046192      4.11811677886491      7.49231866785866
  H   -2.19603598671170      4.87696271137380      8.20572960994208
  C   -3.27130516594196      3.05022777855621      7.90680460601622
  H   -3.55940134970698      2.95758178960855      8.95177066800785
  C   -3.71074126588568      2.04250381320554      6.98024165485106
  C   -3.33097936681257      2.17223810052752      5.62131111896284
  C   -4.51132754706735      0.91926199493323      7.31525333744327
  H   -4.83916820009899      0.77179098083344      8.34247066442402
  C   -4.87725368870003      0.02238608557148      6.32001459890883
  H   -5.49888850839885     -0.84095259281970      6.54214342445201
  C   -4.44950451648894      0.22217767711847      4.98947812411664
  H   -4.72446068881846     -0.45815984912033      4.18902240736871
