65
Coordinates from ORCA-job BUKVAF-oxo_0_1_tpss_d4_lanl2dz_631gpol_Fe2.opt
  Fe  8.32898784425058      1.77517350994255      3.98836761554605
  O   10.09228358162421      1.09687385684873      3.57010476626826
  O   7.74294160078409      0.80639276180033      2.42397193398394
  O   13.74292746128488      2.56239810608463      4.96693897134833
  O   4.11180578395197      1.22536208568430      0.40760606511575
  O   6.83590409969209      5.53145957202781      9.02202039596606
  H   7.70806593028463      5.47082817954583      9.45687179331384
  O   4.48596725177360      5.21160876817615      7.81241441512252
  H   4.78773310273937      5.61742779035983      8.65399010998077
  N   8.95112039919495      2.92779663047656      5.36858088840503
  N   6.65088408099155      2.63109641230411      4.25778518657317
  N   8.81520357756376      3.30820700750807      2.58758517205966
  N   9.77303051738687      6.21968762107144     -0.30293235455842
  O   7.98716239235481      0.53624606032976      5.01853057390904
  C   11.21119240606911      1.49151524485858      4.04503067895817
  C   11.34982210322755      2.53667898590592      5.02624899814405
  C   10.22436360811562      3.15175589761866      5.63278286290524
  H   10.43344389300329      3.90247919996733      6.39595826681881
  C   7.89109789100002      3.54091045064853      6.06144231536393
  C   8.00172008003191      4.25515480525745      7.26972924372991
  H   8.96093288429477      4.34679106149975      7.77762688650481
  C   6.86248863036849      4.81783300477562      7.83578015429478
  C   5.59674529756498      4.67111916315141      7.22243525435119
  C   5.47889159752180      3.95078283373510      6.03623520978315
  H   4.48722072438356      3.81560447124682      5.61322296788979
  C   6.62358707184822      3.38494370765598      5.44762563829566
  C   5.62298159787921      2.53250179619760      3.43587422221639
  H   4.74463379382397      3.12493996053086      3.69262532441145
  C   5.53967935506091      1.75184373813497      2.25521039961782
  C   6.61271074639457      0.88995249338956      1.83223505822496
  C   12.39926994056660      0.74878941139419      3.47351739682283
  H   13.02250611127644      0.32522372117943      4.26892708369413
  H   13.05019295196350      1.43128348074354      2.91394211230320
  H   12.01437176932023     -0.04098254011843      2.81951093996457
  C   12.68686974557860      2.99909438590946      5.44932019268007
  C   12.79594721655025      4.08278591836587      6.53564335606207
  H   12.33649064710805      3.76282715338403      7.48261456371687
  H   12.31499594510659      5.02345807671796      6.22887006924496
  H   13.86112420655669      4.26738670875178      6.70201010292601
  C   6.50508519153181     -0.01202888496090      0.62227051830988
  H   7.43025062112603     -0.59487957806651      0.55866269844139
  H   6.35461951954576      0.57808805950441     -0.28956628652753
  H   5.63477352760016     -0.67358567787968      0.69752094144280
  C   4.29096385833308      1.84120625532220      1.46915614354491
  C   3.15111061520428      2.74158028654067      1.97235411990615
  H   3.45816243727169      3.79537929184959      2.04460391989595
  H   2.78660461373490      2.42953837905510      2.96218465346751
  H   2.33279644368909      2.65955772084306      1.25126500769233
  C   8.53996505772945      4.61553653667687      2.78446833042336
  H   8.05719809560593      4.86164820971089      3.72760549507195
  C   8.83721603954381      5.61334515799208      1.86815687399228
  H   8.58207726693430      6.64081958939635      2.10948706705111
  C   9.46650417377937      5.27316206009981      0.64032945492568
  C   9.75840774023752      3.89625197134514      0.44483250289432
  H   10.24291992728881      3.54331209150178     -0.46044323605199
  C   9.41939696872938      2.97488492718254      1.42381687695341
  H   9.62733002127680      1.91551389931449      1.29842464741496
  C   9.47719073767960      7.62773224484690     -0.04685313403454
  H   8.40247288953151      7.77788468846637      0.13272363164865
  H   9.76467677326806      8.21393480972587     -0.92357100576796
  H   10.03447106534001      8.00570626218962      0.82444097958479
  C   10.46333317006881      5.82944559420090     -1.53121296123329
  H   11.44529420894317      5.38189244131789     -1.31473764222647
  H   10.61529418238841      6.71949273653101     -2.14728374981226
  H   9.86728701512539      5.10644943423129     -2.10729067896648
