64
Coordinates from ORCA-job BUKVAF_0_1_tpss_d4_lanl2dz_631gpol_Fe2.opt
  Fe  8.41693286965224      2.04150473264075      3.71574917886980
  O   10.10076315332796      1.22339170036926      3.43114725776627
  O   7.79120581816205      0.91385641486178      2.32966598623025
  O   13.74254329309265      2.14483013402128      5.26135755949038
  O   3.98208598252350      0.83311035553620      0.61499637565849
  O   6.93751740598284      5.91616798304968      8.70132860167389
  H   7.82907023858878      5.92271012401074      9.09908285769677
  O   4.57642030575844      5.55977773743544      7.51506769507834
  H   4.89251961787819      6.04281430450491      8.30892425879000
  N   8.98719397897219      2.96173178331880      5.26358408488540
  N   6.68881866490163      2.65195445123524      4.16859819142202
  N   8.81415496339414      3.46891491795499      2.48469645222624
  N   9.75318502227104      6.46764009806546     -0.32307900113202
  C   11.22187420958628      1.44972551834172      4.01638555832642
  C   11.36495190612094      2.37309891418697      5.10999001516881
  C   10.24606957223776      3.02934867081942      5.68459719987266
  H   10.44200284920082      3.64100746430124      6.56502990079325
  C   7.94217920773450      3.65457764036837      5.91641943886077
  C   8.06622992879947      4.46668796802933      7.06223887620814
  H   9.03030321288756      4.61005143421954      7.54858054518879
  C   6.94082748329299      5.09380145373394      7.58535368353215
  C   5.67256024302451      4.93062766418396      6.98363272425319
  C   5.54118340697516      4.13065243104834      5.85215500401170
  H   4.55055532294326      4.02321671104300      5.41928012711747
  C   6.66987698420932      3.48631112035762      5.31098983061162
  C   5.58591760798877      2.39736272707650      3.47102405193899
  H   4.66123522538554      2.85296895874430      3.82319587933542
  C   5.48974441579444      1.57973552435722      2.31660477993142
  C   6.61435578212600      0.83367508359218      1.81973734078006
  C   12.37289651662034      0.63371652285771      3.47110222673667
  H   12.88818712117238      0.08037082309995      4.26449687450574
  H   13.13270646604849      1.28313327655798      3.01899426501797
  H   11.96625721088557     -0.05404469558064      2.72102304856460
  C   12.69222969731537      2.63949212465749      5.69939902910712
  C   12.80046638067794      3.58330770274378      6.90918297127054
  H   12.23065464076748      3.21054862697602      7.77320850163024
  H   12.43423266829093      4.59393575044208      6.67583687679171
  H   13.85852902212105      3.64224475639155      7.18047702597913
  C   6.51311161508332     -0.14050119572114      0.66721361192276
  H   7.48533223115438     -0.63583868429163      0.56528315394163
  H   6.25228507676520      0.38097080627541     -0.26190934176790
  H   5.71801804480194     -0.87754152351338      0.82805120790977
  C   4.17227939086330      1.48495740117637      1.65335792610467
  C   2.97223175884825      2.23011860317334      2.25957110872612
  H   3.13542425173910      3.31737423066959      2.28913018427290
  H   2.75732417061520      1.89627586968567      3.28520575712570
  H   2.10540268002879      2.01846267817809      1.62683117040425
  C   8.52132615368895      4.77072037873288      2.72154112285231
  H   8.03512412965988      4.98257057863248      3.66993676711386
  C   8.81486782079677      5.79033694470975      1.82905271884663
  H   8.54987633804094      6.80810175959430      2.09902290941796
  C   9.45102066485784      5.49162890847478      0.59470395874237
  C   9.75559518671818      4.12373038104832      0.36240839377736
  H   10.24692349319528      3.79960873385913     -0.54982068919194
  C   9.42612948226843      3.16804271293671      1.30962664749102
  H   9.64494322198981      2.11545211065820      1.15989053038233
  C   9.47208456494347      7.86745117608204     -0.01602066995751
  H   8.40098653192862      8.01765512630049      0.18317627108337
  H   9.74940388322086      8.48061190924160     -0.87761256921614
  H   10.04301958944538      8.21536404424735      0.85962199151203
  C   10.47880907276082      6.11909831691507     -1.54236597698252
  H   11.46763772540032      5.69013629664662     -1.31655339562384
  H   10.62055743634998      7.02402559281149     -2.13913156776387
  H   9.91214708812185      5.39382793392214     -2.14446649531398
