70
Coordinates from ORCA-job BUKVAF-CH3OH_0_3_tpss_d4_lanl2dz_631gpol_Fe2.opt
  Fe  8.56943526248498      2.15925973146645      3.80252893378289
  O   10.30198237056249      1.39936816160428      3.50073533572236
  O   7.99314257239399      1.06480345753260      2.35171050857816
  O   13.75856153709316      1.92001899520088      5.79280953590604
  O   4.21717693460412      0.98698870827631      0.56198278141836
  O   6.99657150958275      6.24408906551991      8.59978352616482
  H   7.88161545118549      6.26755374329705      9.01099685128695
  O   4.66380927570285      5.86708156318018      7.36024094781031
  H   4.96090632388198      6.37534775754605      8.14566083424698
  N   9.10367499022719      3.13558165861535      5.33970323901927
  N   6.84182152527153      2.84907029287506      4.15965144342124
  N   9.02571720359493      3.79080005144698      2.32293322501997
  N   9.51800075207618      6.63077944837183     -0.75251666635842
  O   8.33357320491288      0.27231747026364      5.36950212647465
  C   11.38222700145424      1.57533221339405      4.17810071125308
  C   11.44876492977990      2.38766115675851      5.36294993734596
  C   10.32308100046053      3.10374055452787      5.86301695898673
  H   10.48371765109651      3.67349941975053      6.77793954218249
  C   8.04862057584561      3.87308316882064      5.92721343421753
  C   8.15189626666391      4.72272001322646      7.04504948795893
  H   9.10709599116253      4.88175902590066      7.54406368921965
  C   7.01934040616413      5.38139312391710      7.51500313220758
  C   5.76859231667020      5.21051892768689      6.88351097864460
  C   5.66190143614368      4.37750458726113      5.77150093793479
  H   4.68384267389254      4.26860437248555      5.31120823740583
  C   6.79751280772771      3.70680699811987      5.28401930138233
  C   5.76737334559913      2.59773741887778      3.42295724327163
  H   4.83921475507196      3.08234914633101      3.72339884769724
  C   5.69753676894095      1.75983185657161      2.27836207956105
  C   6.83011084510827      1.01211639769572      1.80615950085903
  C   12.57937962497094      0.83834281676129      3.61662530667566
  H   12.98290813778991      0.11873525043977      4.33904273806237
  H   13.40243078441162      1.52809769056538      3.39511509321800
  H   12.25253316984691      0.32453142533560      2.70542831138608
  C   12.71493703850022      2.50766203816993      6.11643518937999
  C   12.76404125517118      3.40148742200849      7.36734019102357
  H   12.06693507795244      3.05952151086604      8.14660436499386
  H   12.51924159566068      4.44803588752553      7.13349263273820
  H   13.78428019393858      3.35310569280639      7.75902865424801
  C   6.75996933882895      0.07501436341858      0.61968704096775
  H   7.74312854208177     -0.39734106491198      0.51246375950234
  H   6.49685473459749      0.61978867014373     -0.29515816111380
  H   5.97835379130558     -0.68276458270861      0.74838113542783
  C   4.39496731320411      1.66518493385019      1.58583829432352
  C   3.19036135461904      2.44213148572256      2.14214488849141
  H   3.36940187234349      3.52734848783163      2.15037156416091
  H   2.94235510685470      2.13634028165262      3.16910078753917
  H   2.33799192374100      2.22764561561703      1.49089775442331
  C   8.59939696659490      5.06254292859534      2.46287572732733
  H   8.12102679119831      5.29592961981076      3.41334797069839
  C   8.73926978252646      6.03940417399300      1.48503267754847
  H   8.36744092643331      7.04127199353375      1.67977429409318
  C   9.36135207310588      5.70658117705456      0.25179538135584
  C   9.81175772900169      4.36634797063402      0.11229149591217
  H   10.30034250270536      4.02596163211298     -0.79608595729148
  C   9.62190545559090      3.46872479388365      1.15503789139878
  H   9.94944933858463      2.43396341490172      1.07523828854772
  C   9.05080023461701      8.00101431849467     -0.56247305264110
  H   7.96779847926434      8.03019366035041     -0.36869382306285
  H   9.25290702678477      8.57266690673210     -1.47230971288978
  H   9.56829847163439      8.48973453117181      0.27762250217183
  C   10.17270307436792      6.24739170799295     -2.00040825016630
  H   11.20935474415873      5.92003699948417     -1.82656004183178
  H   10.19104097144544      7.11193734515741     -2.66951635563381
  H   9.62917897700971      5.43213905067169     -2.50150131862549
  C   8.47014576796662     -0.98064747051043      4.66312249437098
  H   9.19220151402183     -0.89155064541315      3.84152643679090
  H   8.76291736146038     -1.78619127911682      5.35273067425272
  H   7.48171739839818     -1.19882708919243      4.25107117626742
  H   9.20546587195328      0.48418784804134      5.76162531333626
