64
Coordinates from ORCA-job BUKVAF_0_3_tpss_d4_lanl2dz_631gpol_Fe2.opt
  Fe  8.36582156746577      1.97380874322979      3.77469782844462
  O   10.05462773226882      1.14719548508653      3.48643660955500
  O   7.74517920046420      0.86556678252903      2.36467578417008
  O   13.70351173216400      2.12981652573857      5.27164837527854
  O   3.90645320136887      0.73885122317899      0.71444144891243
  O   6.89569350299229      5.84077976747984      8.77948130801375
  H   7.78967068969140      5.85029073954271      9.17173273407537
  O   4.53161597013355      5.48766078243374      7.59582447428097
  H   4.84713393901552      5.96810103884250      8.39153058406747
  N   8.94198333206523      2.92435342129788      5.30835129028351
  N   6.64056143472525      2.60431422368358      4.22710654019883
  N   8.86814811413238      3.59009705499942      2.38052369309314
  N   9.88812329270161      6.55824387851063     -0.42973406477691
  C   11.17772303667223      1.39947712271624      4.05907059211587
  C   11.32360765203752      2.34714179285610      5.12998609214731
  C   10.20738173356836      3.01062983616983      5.70319270334347
  H   10.41312065696484      3.64991729714816      6.56134760518759
  C   7.89583238700840      3.60827546682417      5.97224154097515
  C   8.02284403727674      4.40691130697769      7.12488704537746
  H   8.98765897506767      4.54272938329679      7.61203119248421
  C   6.89708054511796      5.02956461293998      7.65608860151706
  C   5.62864721181960      4.86742718186102      7.05741419284872
  C   5.49524606777401      4.07209979669052      5.92107769032469
  H   4.50286074482815      3.96108038273928      5.49312299484301
  C   6.62391082219501      3.43799564303241      5.37285649182308
  C   5.53818605775234      2.34198494064690      3.53226917539981
  H   4.61570736952226      2.80321815208465      3.88219427531719
  C   5.43661942998690      1.51733271586444      2.38271941417737
  C   6.56193438564138      0.78729033406102      1.86651257042201
  C   12.33342296740072      0.58892003736163      3.51490188108029
  H   12.85868564748357      0.04973774009559      4.31157318482961
  H   13.08414164227741      1.24132268205146      3.05211139168033
  H   11.92876525873399     -0.11100925898375      2.77539086770393
  C   12.65577417078597      2.63674100153597      5.70018369725623
  C   12.77154117712254      3.62346504557846      6.87445690137189
  H   12.21573157883455      3.27634914476431      7.75813507565843
  H   12.39431203283873      4.62246788537137      6.61061637218213
  H   13.83240640445555      3.69944628963320      7.13004772440063
  C   6.45951812499069     -0.16156740625191      0.69294111712273
  H   7.44220086688291     -0.62635339148408      0.55565909065498
  H   6.15737556984556      0.37184012982817     -0.21641972817424
  H   5.69075164097911     -0.92520697371830      0.85907467367213
  C   4.10908380372809      1.40724641789384      1.73915094851965
  C   2.91429582902647      2.15604217030542      2.35129590440950
  H   3.07573539267569      3.24389449816779      2.36694354388965
  H   2.71155365485783      1.83272136826067      3.38279774207701
  H   2.04094214283704      1.93537259431618      1.73079429458997
  C   8.59271483267568      4.89223675639953      2.60115253841962
  H   8.09396317455614      5.11415137561309      3.54396612320778
  C   8.90933538426403      5.91044451288168      1.71174817297965
  H   8.65526717561978      6.93504732081895      1.96739231029930
  C   9.55973512554772      5.59184842400576      0.48874717551498
  C   9.85015446191160      4.21873859774947      0.26602114345724
  H   10.35011373611636      3.88614043416420     -0.63885668179375
  C   9.48896592419340      3.27882307671241      1.22136494114701
  H   9.69515672840453      2.22002432416563      1.07813481375299
  C   9.61178250982464      7.96310736132508     -0.14053022553120
  H   8.53788762930496      8.12474412257244      0.03366432549213
  H   9.91461707841983      8.56664095766298     -1.00038172681755
  H   10.16611226668512      8.31249176852668      0.74492414409697
  C   10.61399855047253      6.19268896826871     -1.64418984182439
  H   11.59301689823040      5.74599792163980     -1.41091309469546
  H   10.77650454585698      7.09361083242215     -2.24176859918461
  H   10.03785124973705      5.47627763788274     -2.24805898534659
