67
Coordinates from ORCA-job ADAREF-OH_1_4_tpss_d4_lanl2dz_631gpol_Fe2.opt
  C   6.52849353947617     -6.26193798745366      5.10737461542911
  H   7.37327246683312     -6.95037076348039      5.22835017630660
  H   6.87659899413525     -5.37976027928098      4.55553294786015
  H   5.77595695033901     -6.76496755415690      4.48204551107392
  C   4.80105804095309     -5.16959974739091      8.90994484088196
  C   5.52716464407280     -6.36208044321232      8.80328734334612
  H   5.62988123168892     -7.02905503129656      9.65709627645845
  C   6.09530430144792     -6.69907610705536      7.57225138490859
  H   6.66163983052799     -7.62494346005323      7.48616132851087
  C   5.93631999950668     -5.87459606659902      6.44350875286913
  C   5.18823436522720     -4.68942753511475      6.58408502110810
  H   5.05761903399541     -4.03354295326290      5.72465675749180
  C   4.62116512626360     -4.32564941249262      7.80629516320626
  H   4.05618434934559     -3.40394411987014      7.91475831034761
  C   4.71106426890081     -5.05556055433562     11.42196761392853
  H   5.63557523608988     -5.58667858853884     11.59652311963733
  C   3.79189057967470     -4.45920371735291     12.27299792883243
  C   3.68549805458232     -4.36390128084401     13.71133150586524
  H   4.37542730100734     -4.92694176340836     14.34778970235273
  C   2.48308272478370     -3.65389955634137     15.66532656151088
  H   1.58810608111441     -4.27790367079718     15.80909098996295
  H   3.32719823109274     -4.15284564794072     16.16668875581144
  C   2.25188668111718     -2.26483888754563     16.32232579940358
  C   2.30498941614506     -2.49890582384039     17.85007365844931
  H   3.30142977409539     -2.84644628583764     18.15293960768965
  H   1.56715758089294     -3.24744762595153     18.17299610316402
  H   2.09939631960572     -1.56445831069318     18.38874529144915
  C   3.34092921441373     -1.26238363904412     15.90007814237105
  H   3.30626645190340     -1.05535129605013     14.82381519369304
  H   4.33762147154473     -1.65512479989336     16.14658704796480
  H   3.21256776606877     -0.31623027692900     16.44391980167570
  C   0.83744737536719     -1.72156618204169     16.00741714402999
  H   0.65379929795721     -0.79861663846912     16.58045840491681
  H   0.08829248330585     -2.46611031472627     16.32334699059928
  C   -0.28313187228319     -0.68574876364149     14.15245011274228
  H   -0.89831509601735     -0.05827028959015     14.80695136040871
  C   -0.50029343430794     -0.66217947263548     12.71337391679901
  C   -1.37563730385158     -0.00585579241701     11.86487327669753
  H   -2.17267161293249      0.70182543283129     12.04036383480521
  C   -1.70383916983671     -0.16071148070180      9.37122208411012
  C   -2.18697616819152      1.13601846392728      9.16067771007860
  H   -2.05577641735373      1.90924125646066      9.91526139500153
  C   -2.80941233239063      1.43313240995976      7.94551720633177
  H   -3.18234447665550      2.44150238129259      7.77429270034149
  C   -2.94542424367269      0.46165731616000      6.93704848961883
  C   -2.43104102772745     -0.82759541144202      7.17834876188182
  H   -2.52322192494357     -1.59402995864608      6.41033224401080
  C   -1.81617403098195     -1.15247554068659      8.38801997192719
  H   -1.43413624729343     -2.15180409803295      8.57839752045363
  C   -3.64210263140988      0.78386339247581      5.63469900691991
  H   -3.13900959744733      0.30507287904698      4.78506077306198
  H   -3.67430407296705      1.86480866419143      5.45460765713315
  H   -4.67916293909444      0.41706318515616      5.65064300791346
  C   -0.78648479786407     -4.04991814460542     13.80261964337338
  N   4.24011511803897     -4.79489487491905     10.17207712427938
  N   3.07488164182559     -4.07104502283998     10.22716777692765
  N   2.81851264143505     -3.87774310794669     11.49163432630018
  N   2.74376666607753     -3.63781370765016     14.21877139918117
  N   0.62008692688624     -1.49660007574560     14.58078737369392
  N   0.25423137382490     -1.50177014481503     11.92616577133246
  N   -0.07896480210205     -1.40243130083367     10.66376833706826
  N   -1.08319400174219     -0.48670144927559     10.62038341910666
  N   0.24639720724225     -3.94602325359702     13.18344492593170
  O   2.83861021746059     -1.37564859877590     12.70119581167826
  S   -2.15904952709958     -4.19868500463560     14.62611738751806
  Fe  1.57822794228663     -2.62185245297866     12.93702295750222
  H   2.89101880961266     -1.14707111378908     11.74732492276236
