65
Coordinates from ORCA-job ADAREF_1_1_tpss_d4_lanl2dz_631gpol_Fe2.opt
  C   5.23810219949498     -5.44126076361552      4.88868469553021
  H   6.01405223751543     -6.20964554476348      4.79166239526751
  H   5.58208098636233     -4.53414656985803      4.37589513069134
  H   4.34477033534386     -5.80072501465379      4.35653530642572
  C   4.27533731804655     -4.65289104452643      9.02207659110152
  C   4.87575178203295     -5.86985379278392      8.67821787432964
  H   5.06798723952045     -6.63123661100269      9.43160271136635
  C   5.19755497076793     -6.10892840598981      7.33985533891137
  H   5.66382964859132     -7.05466877766409      7.06884242188632
  C   4.91569354818265     -5.16145096035816      6.33902564651783
  C   4.29983932606135     -3.95331210246644      6.72055917618622
  H   4.07778502803112     -3.20261145268229      5.96344180157155
  C   3.97895236262461     -3.68608671993139      8.05184199899762
  H   3.51411041830119     -2.74870534789811      8.34459541082961
  C   4.57345885414081     -4.85663704891487     11.51688313291295
  H   5.43201020478669     -5.51044345037652     11.47769691974817
  C   3.87286046468435     -4.28257706235645     12.56336060150357
  C   3.85889259602715     -4.30081331581796     14.00052202821978
  H   4.56355493704073     -4.88437771004459     14.59454324301816
  C   2.71835866695152     -3.61402312147504     15.99383623707192
  H   1.93875230810262     -4.36329528224502     16.19820682682618
  H   3.64839732421412     -3.94425000804564     16.48066719241663
  C   2.27882650189014     -2.24815354098823     16.56812642758867
  C   2.24106192309666     -2.38429166956690     18.10549457962063
  H   3.23800623141210     -2.62630092429278     18.49645222825204
  H   1.54782260357971     -3.17615335195477     18.42219752867739
  H   1.91831092009788     -1.44251816877745     18.56823630913811
  C   3.26120091097869     -1.13630248472498     16.15519692719603
  H   3.29741254079002     -1.01329717037850     15.06236237470992
  H   4.27694267006810     -1.36811107125793     16.50254208257313
  H   2.96343997353677     -0.17412326619603     16.59276813464541
  C   0.84396101466223     -1.92298730538775     16.09828580267762
  H   0.45713037318989     -1.05249448586680     16.64881211324780
  H   0.18945652002632     -2.78164644609937     16.31103954481903
  C   -0.15148224792452     -0.83518265909114     14.21333914753436
  H   -0.80561765197391     -0.27310180660391     14.88075210145477
  C   -0.24389618176558     -0.76539526384002     12.78130646603953
  C   -1.08249915355920     -0.24258541192274     11.81250998215143
  H   -1.97345403223482      0.36608117323357     11.85818901544968
  C   -1.13805202624532     -0.58712952748020      9.32106466111706
  C   -1.67397576322487      0.64486149512988      8.93208496708803
  H   -1.63989145850560      1.50276966081743      9.60122600077189
  C   -2.22557310939676      0.76264368081012      7.65278348882108
  H   -2.64146096377930      1.71898277882944      7.34011961443753
  C   -2.23866703960240     -0.32458795136319      6.76096671190227
  C   -1.67779557222214     -1.54613696879333      7.18533612139502
  H   -1.68458985227923     -2.40187153198244      6.51168356716286
  C   -1.13097338181126     -1.69280563944732      8.46011509085396
  H   -0.72542025836802     -2.64129765206976      8.80183676576600
  C   -2.85241085122764     -0.19706100282281      5.38485283019742
  H   -2.17369410843560     -0.58046073954125      4.61126464104167
  H   -3.09086627102668      0.84613455975650      5.14754088188078
  H   -3.78293727400472     -0.77933003374632      5.31946467218209
  C   -0.61664992871768     -4.07917801862145     12.67257140137457
  N   3.95835086606711     -4.38298277413904     10.39178648374213
  N   2.92719596422546     -3.54680394575284     10.69131525846910
  N   2.88831773671106     -3.49118615850678     12.00213037780330
  N   2.90755943561892     -3.58394585307992     14.54009814704727
  N   0.75443374481015     -1.66826685527351     14.65440645266618
  N   0.68746111418625     -1.54766120129980     12.12767671510011
  N   0.48687480830356     -1.53600643490279     10.82898257341165
  N   -0.59915661960744     -0.74219831238224     10.63783653882690
  N   0.42988523870826     -4.06368393436002     13.27772643844407
  S   -2.01946125423021     -4.12781989160161     11.86693241619622
  Fe  1.75114115135872     -2.64067378699035     13.30813373519368
