65
Coordinates from ORCA-job ADAREF_1_5_tpss_d4_lanl2dz_631gpol_Fe2.opt
  C   5.99259296239863     -5.87394517228966      5.08017331643407
  H   6.98433768062592     -6.34136991339532      5.09247885115628
  H   6.04114042845255     -4.97361938451705      4.45484666814437
  H   5.30011447604157     -6.57592902179972      4.59213631952295
  C   4.59951018533035     -4.97090180817484      9.06384515268793
  C   5.56994326844767     -5.96412529223405      8.88569675382444
  H   5.94690926476993     -6.53498452090397      9.73209907584221
  C   6.02657954906252     -6.23671974031497      7.59384719524231
  H   6.78048171271476     -7.00911556923691      7.45129066581517
  C   5.51864732651435     -5.54689743504176      6.47786507671515
  C   4.53571316156666     -4.56151200583462      6.69440478639952
  H   4.13290166533124     -4.01108157398540      5.84550743969939
  C   4.07183375180405     -4.26275770237061      7.97611417458849
  H   3.32118644691149     -3.49480705896566      8.14107736449635
  C   4.80221594416549     -4.76903962068839     11.56764966352151
  H   5.83418113900846     -5.08256625664761     11.62718806283265
  C   3.88406664257761     -4.36153027716102     12.52249136619925
  C   3.87164875304976     -4.24699992214667     13.96496451597113
  H   4.76939340490699     -4.46944439332967     14.55123755355181
  C   2.66487806168205     -3.74667942538681     15.96477165417650
  H   1.88285267192301     -4.43911429863790     16.30835353490072
  H   3.61719761367447     -4.04145961522875     16.43477223373344
  C   2.30397480092265     -2.30254993394049     16.41788632932230
  C   2.36887223713386     -2.28697747301285     17.96048947864116
  H   3.38105503053517     -2.53286142874604     18.30750406737883
  H   1.67020385302883     -3.01282160256880     18.39961759472964
  H   2.11456578821197     -1.29118610561371     18.34659500324188
  C   3.30050083862830     -1.28649494067817     15.83109653656939
  H   3.25639002362044     -1.26493860692906     14.73390898852049
  H   4.32850079662420     -1.53501109662069     16.12903106519824
  H   3.08065729048035     -0.27569951580638     16.20081787801767
  C   0.85262261221287     -1.93370202908664     16.01621509761515
  H   0.56444445971385     -0.98993153154936     16.50717156828537
  H   0.16942864827054     -2.72242158490199     16.36609662118180
  C   0.05062123561406     -0.82129495041356     14.05912903001276
  H   -0.34728047392281     -0.00550213349896     14.67290210580222
  C   -0.15147645467813     -0.81440314992079     12.62302701603490
  C   -0.93805299981631     -0.07063673757073     11.75878117169758
  H   -1.60979728500787      0.76236302793509     11.90717643346344
  C   -1.41738797426236     -0.35739266333571      9.30533503162312
  C   -1.65086085458654      0.98061156693155      8.96972756167351
  H   -1.30953607709402      1.78466949235674      9.61920686446580
  C   -2.30181578345327      1.26794731321300      7.76646871933521
  H   -2.48375757472089      2.30699998616492      7.49695278472341
  C   -2.71013754435876      0.24308233001932      6.89433104797486
  C   -2.44501988231091     -1.09189886218349      7.26026924906636
  H   -2.75614099125155     -1.90066825269750      6.60066199457427
  C   -1.80716404765567     -1.40533020525448      8.46067593195738
  H   -1.62451080262255     -2.43534608846077      8.75480425585598
  C   -3.42925413396898      0.55887755997715      5.60240091069871
  H   -2.98920563585772      0.00982604478107      4.75937207119869
  H   -3.39033032973028      1.63023399653894      5.37398003892877
  H   -4.48734458060596      0.26589552756204      5.66525856424180
  C   -1.54509208362338     -4.13543901265841     12.84496427568370
  N   4.13269922320115     -4.66687546808206     10.38320881027371
  N   2.86224736593415     -4.20673257937819     10.56704415937963
  N   2.72487102198279     -4.02445198487398     11.85849032897194
  N   2.75359916956118     -3.88282128545582     14.51128273712608
  N   0.67529441951443     -1.83277151226081     14.56805831970166
  N   0.44043576274159     -1.81337554433101     11.88396438162586
  N   0.07242313230119     -1.73681767340265     10.62822742273656
  N   -0.77860799455861     -0.67396130155141     10.54695142419518
  N   -0.42394139083875     -4.43334034671984     13.19949306669275
  S   -3.02990077330068     -3.73216319476106     12.37647752731746
  Fe  1.16328184703257     -3.39428804092255     13.14823510880715
