71
Coordinates from ORCA-job ADAREF-CH3OH_1_1_tpss_d4_lanl2dz_631gpol_Fe2.opt
  C   5.05136084837680     -5.76364027824008      4.84699216851431
  H   5.90257874985633     -6.44986594387240      4.76047699703988
  H   5.28118165470462     -4.85313822015241      4.28004770633813
  H   4.18849099145534     -6.24529057315268      4.36301866859304
  C   4.12430202500997     -4.87809702348213      8.97164899140108
  C   4.68874069646145     -6.11714514054117      8.64375458939418
  H   4.86230685503169     -6.87173660495284      9.40829588322362
  C   5.00015675520576     -6.38631033661633      7.30889478568046
  H   5.43967753090362     -7.34902250307160      7.05282738203326
  C   4.74210375566409     -5.44771344842758      6.29291127539282
  C   4.16167250860265     -4.21774761170938      6.65704806703089
  H   3.95754241020300     -3.47351476512035      5.88857720710024
  C   3.85272621326051     -3.92038876659436      7.98546022729930
  H   3.41274947797975     -2.96650419125601      8.26307221256600
  C   4.40588770699708     -5.06809313499172     11.46999530596830
  H   5.22579825563531     -5.77038929030341     11.44345628563455
  C   3.73575002970111     -4.44327783788863     12.50768461220673
  C   3.72299968267591     -4.43404577192085     13.94540195534193
  H   4.32206033527560     -5.11639029238832     14.54988881728516
  C   2.56607306891989     -3.72218700716068     15.90323624284709
  H   1.74017555166088     -4.44644153914528     15.97156078739706
  H   3.43857856071750     -4.14404232653548     16.42547137217635
  C   2.13183681983048     -2.40679100521994     16.57873219123648
  C   1.92075319242007     -2.70937884394470     18.07976825639206
  H   2.85679800603259     -3.05018349588004     18.54154593049963
  H   1.16107978406933     -3.48922819459460     18.22724587542387
  H   1.59149540898270     -1.80782568889219     18.61313291497613
  C   3.21081098668572     -1.32269136574593     16.42119343260557
  H   3.44384974700530     -1.15033333219332     15.36279779557599
  H   4.14451883431055     -1.62815132896657     16.91215863727847
  H   2.88713243607834     -0.37396269304085     16.86984642486911
  C   0.76803103117721     -1.95540994808146     16.02268044107913
  H   0.41053302459371     -1.07497398237217     16.57798178341432
  H   0.03523732841000     -2.76494174436217     16.17016499943761
  C   -0.22989281838648     -0.92806226299702     14.12712824053618
  H   -0.94098219567546     -0.43179409087769     14.78823076683802
  C   -0.36206793549695     -0.91014693911029     12.69480510791748
  C   -1.20846166702947     -0.38085493777193     11.73589669166439
  H   -2.08871882746202      0.24178390882696     11.79683211304630
  C   -1.25735600685767     -0.68562190818582      9.23561233906971
  C   -1.89056581768532      0.52068931427131      8.91302415808433
  H   -1.96082855622516      1.32553567195464      9.64223989505156
  C   -2.40261729848316      0.69096153340021      7.62427945193385
  H   -2.89232983893687      1.62944043909792      7.36927880292859
  C   -2.28094797353601     -0.31659097129870      6.65000032880834
  C   -1.62137113949372     -1.50924177004007      7.00463428654532
  H   -1.51431809685314     -2.30219004326998      6.26579764306870
  C   -1.11317067090519     -1.70862039715511      8.28923139809974
  H   -0.61885387259009     -2.63592550543885      8.56565793621089
  C   -2.86266194949749     -0.13372734100797      5.26634615467367
  H   -2.25226352986379     -0.63764931639939      4.50661502994172
  H   -2.93931060331387      0.92777048458712      5.00161158181080
  H   -3.87448845520347     -0.56255289013593      5.21290908895120
  C   -0.69233202669494     -4.02138662276291     13.74951494539515
  N   3.82278639206635     -4.57516884943470     10.33661089595909
  N   2.83407798288778     -3.67837356957155     10.62667156371637
  N   2.79434067418678     -3.60839958863081     11.93576349283789
  N   2.86553574929517     -3.59550797248613     14.46939829307310
  N   0.75559627377066     -1.66042499537848     14.57933758810175
  N   0.54800956534524     -1.70742290229230     12.03359243638279
  N   0.33876720509425     -1.69610321117406     10.74383175820683
  N   -0.74489695974940     -0.88554736680197     10.55575632609243
  N   0.45936687252178     -4.05520477801060     13.40041431354432
  O   2.97041311557370     -0.97212734809729     12.95679962080820
  S   -2.23465791477079     -3.96229079663743     14.25547971561252
  Fe  1.76649049676920     -2.61915256819675     13.22524152488414
  C   4.38600062879051     -1.08357701854540     12.64077264773299
  H   4.82148316111627     -0.07928469649966     12.60814735722895
  H   4.90267065411216     -1.70616538137279     13.38110925918436
  H   4.43286978503873     -1.54200373098381     11.65266685238553
  H   2.87243533424686     -0.43260735075485     13.76769017041870
