67
Coordinates from ORCA-job ADAREF-OH_1_6_tpss_d4_lanl2dz_631gpol_Fe2.opt
  C   6.65916354856017     -6.74861590970937      5.26444731521396
  H   7.47772136721254     -7.46476717244403      5.40380363241053
  H   7.02811226668480     -5.91413223408806      4.65518941049645
  H   5.87014512781583     -7.25350858076414      4.68734497795745
  C   5.06702815144343     -5.38132259099376      9.03552723441486
  C   5.71831145296546     -6.61922155792793      8.97494344944142
  H   5.79246430385573     -7.25370022593446      9.85611889401726
  C   6.24538292387320     -7.04472057606783      7.75315412667751
  H   6.75175357883396     -8.00717165640572      7.70179206918485
  C   6.11806329054592     -6.26331951984062      6.59006439311877
  C   5.44792058767626     -5.02824248757543      6.68686401778705
  H   5.34401153158647     -4.40397741915610      5.80069389628942
  C   4.92305825095617     -4.57614237343027      7.89848639647697
  H   4.41783382044947     -3.61701710033476      7.97230627973465
  C   5.00908115066382     -5.14820528643954     11.54296874404706
  H   5.91560417727199     -5.70394366653093     11.73385652573124
  C   4.11181058687398     -4.49318725121568     12.37351566741256
  C   3.98923887532466     -4.33260740972321     13.80549332565125
  H   4.70816484508046     -4.83241353284389     14.46407761075603
  C   2.82287246079439     -3.58582606921843     15.73295813441704
  H   2.11570708363534     -4.39244277113881     15.98196698493245
  H   3.77884280215605     -3.81093188637440     16.23186068840849
  C   2.26277809093855     -2.24868718023746     16.26722797982512
  C   2.24171529266866     -2.36722273046268     17.80833189793829
  H   3.25578752344377     -2.53144552663538     18.19573937457416
  H   1.60805142439915     -3.20088372644301     18.14408735978464
  H   1.85733242423162     -1.44278875962427     18.25866475491615
  C   3.14069969579979     -1.05970228380486     15.83469802951438
  H   3.18635282490022     -0.95593134771163     14.74229004515660
  H   4.16462439286787     -1.18744167756085     16.21290318807065
  H   2.74452192985389     -0.12479631891934     16.25518379629010
  C   0.79611848658605     -2.06052052660982     15.81558748365087
  H   0.32343214168354     -1.27121056979876     16.42078726629725
  H   0.23820435070306     -2.99415889676895     15.99003907652077
  C   -0.34176890942904     -0.99129703855206     14.02943418259686
  H   -1.03302438628732     -0.55425964829170     14.75728790824870
  C   -0.56347860257659     -0.76261258675804     12.61818093269743
  C   -1.55738556960545     -0.12431332383059     11.89130594864086
  H   -2.45541044272495      0.40039476688996     12.18278339124099
  C   -1.92630463727705      0.06349868519091      9.40880189763420
  C   -2.61373966262182      1.28283024272753      9.40081701224052
  H   -2.58478987557473      1.94446874632260     10.26457288380510
  C   -3.31125570599030      1.65544056714221      8.24884513822057
  H   -3.84346151353053      2.60518054512351      8.23647103114513
  C   -3.32242237536002      0.83757340608843      7.10419947817004
  C   -2.60409828249391     -0.37348590279634      7.14287055112278
  H   -2.59641804219111     -1.02068525806924      6.26714130855731
  C   -1.91032348784585     -0.77353648445584      8.28567771023756
  H   -1.37123507988751     -1.71636513839761      8.31905302474405
  C   -4.10140729766344      1.23550942906132      5.87109048934348
  H   -3.56656907915802      0.95633871680967      4.95456888621650
  H   -4.28963731864786      2.31539044416212      5.84769137248422
  H   -5.07664406294489      0.72671440289101      5.84994798818805
  C   -0.79663676104679     -4.02244700630154     12.84661929215599
  N   4.53785142497063     -4.92362462912219     10.28477731195382
  N   3.40097521643365     -4.16252246981627     10.31182053896272
  N   3.16212323091584     -3.91585037425769     11.56912382090627
  N   3.01114180664822     -3.63017822668328     14.27648560959991
  N   0.64928625923912     -1.73790731619076     14.39221383471774
  N   0.29848126561946     -1.33192308593887     11.71415780429911
  N   -0.08260766947666     -1.08669654804874     10.48815929838101
  N   -1.22790726852882     -0.34654155771884     10.58941652592779
  N   0.38934799998879     -3.99630179507526     12.62855179917941
  O   3.01879212774417     -1.24058064008495     12.48951047415940
  S   -2.37686159171027     -3.98198413130036     13.17485916676483
  Fe  1.81421335637069     -2.61476994483686     12.73472449679980
  H   2.91296417230599     -0.59130002314767     11.76625486354060
