30
Coordinates from ORCA-job CAZOCO_2_1_tpss_d4_lanl2dz_631gpol_Co3.opt
  Co  3.87441586430697      9.70504512009994      3.98847204355961
  Cl  5.62391179868967      9.51512383607423      2.67616941333204
  N   4.93747021427470      8.87174583586228      5.44853240550254
  N   3.09547099480716      7.99656626479393      3.67720164529429
  N   2.81614563443364     10.37630010788904      2.48061782907066
  N   2.46347869147366     10.49526966494776      5.15157086986359
  C   4.47892130341559      7.44082508737038      5.59965406594329
  C   4.04894761002902      6.95504321780852      4.21769531769165
  C   2.76399685821854      7.92234231179222      2.20503561360557
  C   2.04434439664015      9.22578539051165      1.86360689719431
  C   1.95366989556453     11.50284682578454      2.98211487708115
  C   1.33838217957477     11.05525173452070      4.30513802721183
  H   3.63895181734051      7.42984102853172      6.30447099869547
  H   5.28039626824678      6.81656833709713      6.01056095593817
  H   3.53823353224998      5.98448076634681      4.26444831596542
  H   4.89240767637689      6.89853981106916      3.52283791340677
  H   3.70824174011661      7.81847497597085      1.66396464435334
  H   2.12826543833356      7.04678570344922      2.01866980211551
  H   1.03250237776671      9.23425135513485      2.28391811582289
  H   1.96345788888490      9.36840711111926      0.78056925879284
  H   1.18411074232101     11.76302058587001      2.24349698806777
  H   2.60598635631303     12.37462898565352      3.11859696318658
  H   0.60099169128666     10.25698491492419      4.16820589304370
  H   0.84480709429218     11.88617136171043      4.82207236475313
  H   5.91256470206396      8.89577199291691      5.11242194823492
  H   4.94228311415177      9.34261522112733      6.36311873597736
  H   2.21758292931863      7.94581104457131      4.21622337662583
  H   3.49107166382132     10.73399482983806      1.78909920683921
  H   2.93567453583599     11.27791839138420      5.63230406631883
  H   2.07941498985102      9.91888818582950      5.91241144651160
