32
Coordinates from ORCA-job CAZOCO-OH_2_4_tpss_d4_lanl2dz_631gpol_Co3.opt
  Co  4.02968864109792      9.83695028981291      3.96014039658129
  Cl  5.66528941957448      9.19377737391854      2.33889750914284
  N   5.12223854110771      8.84160331058556      5.35459273785509
  N   3.15931246333639      8.04871922368485      3.70357578623317
  N   2.80335550968459     10.37405108793796      2.43563570956103
  N   2.22373083847606     10.56511358373075      5.19166078474028
  O   4.75705990621791     11.41326091018059      4.21114499633653
  C   4.57995301636710      7.45428854671117      5.57728294736393
  C   4.06377891164104      6.96175124768202      4.23304818697889
  C   2.73801428922313      7.90159153718682      2.26216655369786
  C   2.02895845833766      9.19582845176422      1.88127118938207
  C   1.94138472530690     11.50705294886945      2.90412804774286
  C   1.22953750387134     11.11104155661417      4.20555547755860
  H   3.77490790740149      7.52677913167197      6.31787258039438
  H   5.36210821384520      6.79889358725602      5.98013185697409
  H   3.50570068987991      6.02078012479122      4.32109125517272
  H   4.87679153187734      6.83785399824622      3.50932612901599
  H   3.64805019291076      7.74526593878274      1.67452257222990
  H   2.08083829395138      7.02885103916905      2.15078959213073
  H   1.02329839472768      9.23015480341757      2.31237047577906
  H   1.93521996038013      9.29974716748147      0.79392202332063
  H   1.20247070529093     11.75344581635379      2.12875986389115
  H   2.60083629626092     12.36965703408100      3.04638609733588
  H   0.47835415319145     10.33505308071910      4.02368484585241
  H   0.70201282214273     11.98227615856934      4.61156605336685
  H   6.05066040711950      8.80868389554742      4.90579146739397
  H   5.23802224379679      9.34170300444121      6.24492383159144
  H   2.31299933555290      8.07711005494289      4.28996467769508
  H   3.48734882406997     10.70556504242438      1.73987214201057
  H   2.55284047023822     11.32777998666002      5.79462683240587
  H   1.74812955721500      9.92539741983729      5.83886030636961
  H   4.54232777590535     11.95416264692788      5.00741707389509
