30
Coordinates from ORCA-job CAZOCO_2_5_tpss_d4_lanl2dz_631gpol_Co3.opt
  Co  3.85860770320032      9.71054358745742      4.18569990629196
  Cl  5.66565662280606     10.68365448781953      3.49298554327701
  N   4.72341087765712      8.48913964811620      5.74484869417425
  N   3.16465764179139      7.80410407179920      3.60530849416280
  N   2.61530991016457     10.23933606154423      2.45900553612706
  N   2.71444242307424     11.19876807290102      5.09569271790192
  C   4.49115074207365      7.02390919033117      5.48710264027638
  C   4.24279205861545      6.83620619968180      3.98962525931721
  C   2.74613943252471      7.82796500170004      2.16777068006798
  C   1.84161999556424      9.04714129904111      1.99635987048721
  C   1.82521119358583     11.46026004304585      2.81519307081500
  C   1.45515876291914     11.40906839818215      4.29987926672129
  H   3.61313121378181      6.71551668189653      6.06688961081290
  H   5.34734608955071      6.42661532839831      5.82030530775997
  H   3.93608446690758      5.80612386489052      3.76259744896536
  H   5.13263740884269      7.07440490319638      3.39283259590697
  H   3.65328880094006      7.91221885001275      1.55698075317332
  H   2.22919180822201      6.89681770709470      1.90026738960969
  H   0.94010332590923      8.95852140566477      2.61605122013912
  H   1.52707895890764      9.16859455387646      0.95151214875236
  H   0.92047233035421     11.53246768231713      2.19750415179515
  H   2.45519044287851     12.33221232492541      2.60510290422477
  H   0.78507256561038     10.56964605564557      4.52091355181914
  H   0.95559559327302     12.33629089422640      4.60643007424037
  H   5.72885731892355      8.70053340557418      5.68432212969337
  H   4.45327607664577      8.73162517973626      6.70542669057782
  H   2.33274386413516      7.60448521539872      4.18251100281153
  H   3.30719831887592     10.48199532729683      1.73902545635256
  H   3.28363076318057     12.05792020847210      5.09204210130070
  H   2.49104328908424     11.01921434975672      6.08301378244460
