36
Coordinates from ORCA-job CAZOCO-CH3OH_2_1_tpss_d4_lanl2dz_631gpol_Co3.opt
  Co  3.91569687813150      9.49927440467890      4.26224137072965
  Cl  5.79736485575165      8.95926693275016      3.15215650217551
  N   4.60879148873249      8.42976856736512      5.80222485615587
  N   3.02412297101039      7.86776073486514      3.70302108766928
  N   3.12465675232275     10.30121808263524      2.64358275174095
  N   2.34622106650800     10.24700387411862      5.22859219278062
  O   4.90108325513903     11.14217595720945      4.91720030117472
  C   3.91482822855331      7.08803902240280      5.81173752283108
  C   3.70101379260896      6.69273184368869      4.35570198371632
  C   2.97491895795276      7.85185281743314      2.19981026970390
  C   2.47060636228267      9.22912284137541      1.77894355404535
  C   2.13892637921469     11.35659201044965      3.06946575369568
  C   1.34575787844565     10.79278186602376      4.24394263445043
  H   2.96035840279099      7.20804717778830      6.33917077249097
  H   4.51452256330899      6.34681192752281      6.35225389465735
  H   3.07784411139745      5.79476773342993      4.26090156462357
  H   4.65210264147800      6.53580282315561      3.83660363216184
  H   3.98961839840663      7.66157785794569      1.84305689694434
  H   2.30388433962151      7.05571792347988      1.85214748810938
  H   1.38740817914421      9.30784011258604      1.92528424991590
  H   2.68315955916096      9.43077735714592      0.72409907023241
  H   1.48404954877302     11.63586813968131      2.23423784517187
  H   2.69960878257540     12.24472407699533      3.37506871391688
  H   0.69588476548756      9.96525259216680      3.93624297349337
  H   0.71584017144656     11.55962507665398      4.70976301687672
  H   5.60700602047523      8.27976337852984      5.58973765650200
  H   4.56019385734534      8.85619918032950      6.73698529488872
  H   2.05666045436794      7.90896434552727      4.05396801153592
  H   3.89684920733616     10.72048022651081      2.10999367108951
  H   2.76816160786297     11.02294858929177      5.75880110016953
  H   1.87651557334806      9.64977316977050      5.92074115280155
  C   5.46232015033092     12.17872305058856      4.00923114689799
  H   6.12201096550341     12.80924175849842      4.61134064779615
  H   6.00782894743627     11.69297369444015      3.19496346763324
  H   4.61919710002622     12.76995281110660      3.65267417495922
  H   5.69291578572216     10.74841804185822      5.34589277626195
