53
Coordinates from ORCA-job BACNID_0_4_tpss_d4_lanl2dz_631gpol_Co2.opt
  Co  5.17313659304703      0.40996840004865      0.08395668212948
  S   5.68360755098677      2.18156231828527     -2.31215307027563
  O   4.06766654165395      0.78399276945261      1.64482136265919
  O   3.57275560740266     -0.33547513690380     -2.32040433616568
  O   2.54243977802562      2.28365388266669      5.16740947602983
  O   4.35327707159337      1.71198062388397      4.07349045645477
  O   5.79792573550389      2.19039964795409     -0.76273821194229
  N   3.49485327626080      0.20331732994726     -1.03601581837661
  N   3.12404456048262      1.92846642292735      4.12242446542691
  C   1.93500667013264      1.14690153332726      0.58865306830447
  C   2.84621848147144      1.22492154395185      1.71042934171953
  C   2.30522273444824      1.78292805087290      2.91469245925477
  C   0.98152923713422      2.22339713915708      3.00810380549746
  H   0.65625347485366      2.63433589667939      3.96017854919644
  C   0.10607489423037      2.14128837313110      1.91763921655227
  C   0.60693032601545      1.59720353476475      0.72918990389531
  H   -0.05484387235329      1.51466735423854     -0.13501084725791
  C   2.29313796416904      0.57958859468222     -0.69580942612968
  C   -1.32386342766170      2.62569122500031      2.02820995547507
  H   -1.86810800207723      2.46490999848131      1.08912891469283
  H   -1.36609410671855      3.69912459448951      2.26231140123460
  H   -1.86392356556861      2.09678613225381      2.82620694908403
  C   7.40322846667797      2.25221348050224     -2.90767946546272
  H   7.86881165785692      1.29886925330396     -2.64150283558963
  H   7.92622468109482      3.08430284579053     -2.42266490903123
  H   7.39620498206815      2.36199014922876     -3.99853548050226
  C   5.22864935887514      3.90837465544399     -2.69356197221404
  H   4.20577114412580      4.05419881676168     -2.33048538881043
  H   5.26276501334392      4.06365746762256     -3.77882602787483
  H   5.91172781773705      4.58990023660662     -2.17368675328153
  H   1.49652883143187      0.44818890499885     -1.43364156851186
  H   4.54161130146795     -0.56907401640569     -2.38951175194029
  O   6.05891147977758     -0.68502944139147     -1.30512842865275
  C   7.31990905357286     -1.00594385269635     -1.36866737418738
  C   8.19890656978758     -0.98527914693667     -0.22008879530775
  C   9.52278916809194     -1.45242475330779     -0.35115740247862
  C   10.06060742323467     -1.92775404228166     -1.55488417406402
  C   9.23174346654783     -1.90793436153822     -2.68284437397453
  C   7.91699912228450     -1.43774365565613     -2.59890815600551
  N   7.15955547260218     -1.38540606724105     -3.84549813272715
  O   7.54199720760407     -2.10239374805903     -4.78949198716384
  O   6.18947542944908     -0.59488217341429     -3.93179539546990
  H   9.58962166942410     -2.24075578731282     -3.65416232075199
  C   11.48287358475586     -2.43943390962157     -1.63856887408907
  H   12.03292658062700     -2.22887156596824     -0.71299560442215
  H   11.50528619462253     -3.52698594843814     -1.80074857612990
  H   12.02837518995575     -1.97421436569765     -2.47119817263397
  H   10.15706122564329     -1.43475231083386      0.53669090951515
  C   7.80510458369324     -0.52510636311441      1.09818042818875
  N   6.66596992903673      0.04403835428073      1.38060952976451
  O   6.52709428374034      0.40098023039929      2.71063643938067
  H   5.58734447874219      0.74553601043088      2.75867844074856
  H   8.52177710909422     -0.65047512474720      1.91442387622061
