54
Coordinates from ORCA-job BACNID-oxo_0_4_tpss_d4_lanl2dz_631gpol_Co2.opt
  Co  5.15402308514778     -0.15688618297607      0.10606923614713
  S   5.43261170179689      2.20546134523354     -1.85353161161929
  O   4.12367241345995      0.61899891696930      1.65003243480568
  O   3.69618635411369     -0.83780011784694     -2.25506396744634
  O   2.72408541339013      2.89250013960260      4.76883380347122
  O   4.50468629558539      2.07822861068290      3.78004078222222
  O   5.25546694219006      1.86398571860424     -0.35082895265604
  N   3.58840241117689     -0.20850732605778     -1.03250238233325
  N   3.28075073980130      2.32857220692627      3.80495391699290
  C   2.05186395303941      0.96523968963463      0.47279655262483
  C   2.95309974889494      1.16243618034384      1.59194850769351
  C   2.44436838697272      1.98083683639109      2.65515663773567
  C   1.14457787553556      2.49612366391474      2.65092353131807
  H   0.84044634405397      3.09321041334446      3.50679421153367
  C   0.26692822672429      2.26158264623798      1.58503232923346
  C   0.75058951989979      1.50489424130500      0.51071544981073
  H   0.09776307315133      1.32366332039953     -0.34528812973228
  C   2.40709400553473      0.25125061044450     -0.73402208579652
  C   -1.14841899050850      2.79804285297209      1.60311920486899
  H   -1.56630734543820      2.85042272844914      0.58952865957882
  H   -1.18785020493870      3.80390716458526      2.04130079276728
  H   -1.81045946069457      2.15396465383329      2.20124465585384
  C   7.18185861672950      2.69341692002906     -2.04139928494889
  H   7.77598723652246      1.77996190011580     -1.95301854483177
  H   7.44555715590679      3.39939029350769     -1.24563996186483
  H   7.32684797061370      3.14042681423393     -3.03256069701659
  C   4.71095646832399      3.88073294923825     -1.90594193219923
  H   3.63902197030833      3.76497095739384     -1.71425320622223
  H   4.86837409495520      4.31921749357091     -2.89878586386633
  H   5.16468403222991      4.49798166680101     -1.12252427182977
  H   1.63192767003647      0.11459426418820     -1.49206648816735
  H   4.68849802881136     -0.93405395479937     -2.39107348519171
  O   6.27373155224498     -0.33312771146193     -1.59949957850996
  C   7.43619634452746     -0.92887153543089     -1.58111608734561
  C   8.31883172185340     -0.86366576732581     -0.43848227886582
  C   9.60566087965444     -1.42813516692434     -0.51369615258410
  C   10.08452288714099     -2.09234732328068     -1.65316689482705
  C   9.23174540786717     -2.17216191487384     -2.75840162132815
  C   7.94513240181092     -1.62056818538709     -2.72241181035252
  N   7.13734946855477     -1.76374151195500     -3.93346705380732
  O   7.72992606700757     -2.08644684997872     -4.98197074817306
  O   5.90241197626591     -1.57598030528050     -3.88050668642790
  H   9.54291286256778     -2.66666693336938     -3.67489382867113
  C   11.45910589282866     -2.72544333657318     -1.67221197879918
  H   12.18182831154047     -2.12565482739533     -1.10319024349016
  H   11.43951826885275     -3.72967113057195     -1.22274480126714
  H   11.83316660270028     -2.82947441293901     -2.69817410095959
  H   10.24980863399606     -1.35109550838070      0.36392873293578
  C   7.96571398927099     -0.21657348363582      0.81252883122002
  N   6.76806037548090      0.15781885341728      1.15137537895050
  O   5.10463632231258     -1.75481657782856      0.44625002514742
  O   6.64549007526179      0.72262822762203      2.39512293021032
  H   5.66508456909433      0.95111050638943      2.46366510321857
  H   8.75597165583849     -0.05408272210905      1.54917302279050
