54
Coordinates from ORCA-job BACNID-oxo_0_2_tpss_d4_lanl2dz_631gpol_Co2.opt
  Co  5.15621209618016      0.73003738344237     -0.20920002124704
  S   6.09123507733111      2.66451542689319     -2.40540589560284
  O   4.22677001854457      1.61289608076363      1.15339630286237
  O   3.77646560823333      0.30650127733299     -2.64786050024275
  O   2.75196841256165      2.53223098165006      4.89275811185209
  O   4.51642317967979      2.44197112237940      3.59693581783627
  O   5.50844284782080      2.61693272442274     -0.97210870999364
  N   3.61855884391878      0.57462535457157     -1.30351693878659
  N   3.28984421711934      2.29053408168155      3.79418326334956
  C   2.00371225172679      1.03059634006343      0.44964547998141
  C   2.96078198902794      1.47223029935099      1.43116368370874
  C   2.43088968654605      1.81456130897960      2.71273874254995
  C   1.06128576214767      1.72077661980993      2.99857115541790
  H   0.74166866153545      2.00215555216045      3.99812055164183
  C   0.14097685970890      1.28584096006081      2.04209808557404
  C   0.63884719098494      0.95692330219468      0.77206895419659
  H   -0.05463106697478      0.62962281228715     -0.00429584829365
  C   2.39030820027997      0.69634271659982     -0.90086051072136
  C   -1.33187513427682      1.15789856948747      2.36568872454551
  H   -1.95546967279837      1.46375528471880      1.51484053793266
  H   -1.60265525243445      1.77889448633290      3.22831759638720
  H   -1.59593346978181      0.11771664878989      2.60919076543848
  C   7.90678700866577      2.77077054206434     -2.20553262740620
  H   8.24989166962045      1.78810378180626     -1.86937617867054
  H   8.14309950969932      3.53187238956532     -1.45277848527093
  H   8.36285813532911      3.01385296799215     -3.17320451488509
  C   5.81075658452854      4.41332410388040     -2.84299653071743
  H   4.72829232943217      4.54641979102964     -2.93988395159590
  H   6.29976409504965      4.63409455502186     -3.79962905957309
  H   6.19648489468956      5.05446455328502     -2.04238906309055
  H   1.61021993080443      0.51739495092325     -1.64213921566237
  H   4.71448991633808     -0.05291396147933     -2.71360300717277
  O   6.17228911448831      0.05699737072698     -1.66030757090933
  C   7.21533230005018     -0.73046966351711     -1.53459190421813
  C   8.07389578649859     -0.66926584390771     -0.38234468686138
  C   9.22722957239446     -1.46754119964282     -0.31889540959269
  C   9.58626650248157     -2.36326118115629     -1.33985425839932
  C   8.75930810682590     -2.42457115712080     -2.46251969197318
  C   7.60615885874943     -1.63097855848079     -2.56651821910533
  N   6.83236800788892     -1.76678633478082     -3.80037855285131
  O   7.23062870073430     -2.59699306835020     -4.63948773852203
  O   5.81912271956425     -1.05489378176536     -3.98332784720876
  H   8.98609238231706     -3.08824640272114     -3.29204535291787
  C   10.81883842292802     -3.23278601004990     -1.21911416659202
  H   11.69311414217296     -2.64597107075827     -0.90477767301462
  H   10.67203933570973     -4.02673743614880     -0.47209857154774
  H   11.05656738830695     -3.71372346598922     -2.17537330778707
  H   9.86064343870383     -1.38525292684233      0.56568749367042
  C   7.81756293756721      0.23221310005332      0.72175795947363
  N   6.70613762828595      0.88274283563016      0.89276180284162
  O   4.86073082339656     -0.84483698763169      0.45196197980076
  O   6.66511632623607      1.70260598550510      1.98718547586422
  H   5.68068620189192      1.88974804261282      2.11197361461051
  H   8.58750092156884      0.36286474627242      1.48346991089779
