55
Coordinates from ORCA-job BACNID-OH_0_3_tpss_d4_lanl2dz_631gpol_Co2.opt
  Co  5.23627381400928     -0.20643761584848      0.18441245849526
  S   5.23142787768260      2.20881250425842     -1.76175853084432
  O   4.17107730031578      0.48186797202044      1.71083691748654
  O   3.83315720746444     -1.14579916557479     -2.05198905687611
  O   2.78799658891064      2.92791104827801      4.72351443610021
  O   4.55969660840609      2.00317247680952      3.81955384362906
  O   5.27307734390280      1.89102738565389     -0.25288663727071
  N   3.71197559141725     -0.39082462946001     -0.89432877300607
  N   3.35092863880426      2.31313153446414      3.79593899100806
  C   2.15463592904104      0.89395033274409      0.47578091024395
  C   3.03509894807276      1.09347282330099      1.60710288659197
  C   2.53991278961120      1.97532493168801      2.62318100722509
  C   1.27139221656243      2.55717347066579      2.55594273511699
  H   0.97115113603182      3.19700315432933      3.38182880859702
  C   0.41484324113785      2.33192938365625      1.46847287579327
  C   0.88284376150302      1.50107794808297      0.44497902944726
  H   0.24447001079213      1.31184222317569     -0.41989859589024
  C   2.52259494184642      0.09568127109514     -0.66806182351745
  C   -0.95744311619749      2.96799097613370      1.41245796898353
  H   -1.46865967897527      2.72092280126932      0.47360747587051
  H   -0.89500018073315      4.06298230869942      1.48593347598296
  H   -1.59106175281036      2.62168123015119      2.24137698870903
  C   6.91395425570640      2.76338643680236     -2.20569386341521
  H   7.54937262743635      1.87403462300849     -2.18534735159722
  H   7.25839475425496      3.49774535627885     -1.46828035932683
  H   6.89998042316855      3.19152005441675     -3.21558955554614
  C   4.42982851249404      3.85049646055568     -1.78330969967147
  H   3.39766086254705      3.69815703264766     -1.44978906950844
  H   4.43853253241500      4.25607065429833     -2.80239344361668
  H   4.95012035752344      4.51785106687017     -1.08677944214817
  H   1.77191066248052     -0.09025275310540     -1.43838423064471
  H   4.81416779977628     -1.06786590465493     -2.28178725591676
  O   6.31341935447966     -0.32526294571911     -1.51096722284422
  C   7.48348889464132     -0.91060060552701     -1.51444987795167
  C   8.35061759486236     -0.91785065236832     -0.36122127689995
  C   9.63318212541416     -1.48348168320194     -0.45441509079634
  C   10.12730081765590     -2.07597557581822     -1.62917309302121
  C   9.29407104026435     -2.07708902573012     -2.74927249857097
  C   8.00728997848235     -1.52247850972149     -2.69232866327956
  N   7.21232852117000     -1.58993057881358     -3.91373021838352
  O   7.81623033726049     -1.79961333383382     -4.98399086660812
  O   5.96807374199823     -1.45571882376919     -3.85207982167456
  H   9.61492799778136     -2.51432922199797     -3.69118541454286
  C   11.50049821131458     -2.71119981061161     -1.66574288901566
  H   12.24590299069262     -2.07965387654270     -1.16322691481990
  H   11.50102239759624     -3.68641749535657     -1.15626698092134
  H   11.83235892008563     -2.87486550352451     -2.69819681689030
  H   10.26554401330569     -1.46604593890882      0.43480427216496
  C   7.98701686128608     -0.31439006005296      0.90773340181051
  N   6.78625929662919      0.04783779637988      1.24496258927468
  O   5.35137839803991     -1.99662397867869      0.53187968383561
  O   6.66253057497009      0.62945830081901      2.47966338120756
  H   5.67736489123470      0.82997253803023      2.55582837513352
  H   8.77130156240002     -0.15929960267701      1.65085690030117
  H   4.73063947383636     -2.44325880508650     -0.08579407799199
