54
Coordinates from ORCA-job BACNID-oxo_0_6_tpss_d4_lanl2dz_631gpol_Co2.opt
  Co  5.11432050009848     -0.42251915555368      0.17730383153664
  S   5.26814832645497      2.23400486388352     -1.71228325210277
  O   3.97255032350107      0.20383826423534      1.65376571078523
  O   3.58681792313208     -1.00390714179655     -2.30014225663684
  O   2.71749096194623      2.38046671297346      4.83763712508571
  O   4.51034915094186      1.70850244892900      3.77053871756639
  O   5.03057380234777      1.87302014614888     -0.24569127047341
  N   3.50055235913618     -0.39146971349168     -1.07328738243342
  N   3.28637627304613      1.95733640595267      3.81477333746964
  C   2.04629826007228      0.90352596888865      0.37567998257160
  C   2.91596257982069      0.94102946409759      1.53824239272059
  C   2.46888038813549      1.78009579313344      2.61469405657741
  C   1.25926374237069      2.46957937901299      2.58456764584933
  H   0.99797073404426      3.07182001108417      3.45120348383371
  C   0.40739963746485      2.39376060738531      1.46972144229044
  C   0.82564888752449      1.60758170820338      0.39033538232224
  H   0.18683199760378      1.53881395154195     -0.49166252068035
  C   2.34674767127944      0.16177350531559     -0.82737537362283
  C   -0.90444240599579      3.14540905880517      1.44431458092892
  H   -1.43303890869005      2.98613697770091      0.49659115584725
  H   -0.74758908000724      4.22644809003515      1.56870786259466
  H   -1.56469109398602      2.81711612524639      2.25966385377717
  C   7.03148304110287      2.70984047810233     -1.85017691023276
  H   7.61647523926935      1.79433274074102     -1.72676923653508
  H   7.27668920430030      3.42496711824551     -1.05614963802736
  H   7.21690583126310      3.14008380743050     -2.84217578595841
  C   4.58796666780151      3.92997867398155     -1.85767409355028
  H   3.50427790793035      3.84830603036806     -1.72056785135918
  H   4.80775275371039      4.33596551671113     -2.85275792899160
  H   5.01484353824207      4.56213231242672     -1.07028539602855
  H   1.57629405864184      0.09448635057846     -1.59996695074096
  H   4.56638057353548     -1.18127525305691     -2.41451706896311
  O   6.21127130706081     -0.44086085215315     -1.49155937360031
  C   7.40308324228838     -0.97466042783716     -1.51167764118573
  C   8.33939350372457     -0.80692996098454     -0.41885620014511
  C   9.65148216005614     -1.29609963903277     -0.54194377234035
  C   10.10905989400298     -1.98518246465741     -1.67576203626819
  C   9.20910513445902     -2.16043926229599     -2.73234346970757
  C   7.89828867266824     -1.67724731572415     -2.65370378798122
  N   7.04781827963366     -1.92078436077616     -3.81768117445592
  O   7.61093459884076     -2.24700970406435     -4.87982936927508
  O   5.80563242529922     -1.81316344670984     -3.71696956520952
  H   9.50232008883889     -2.68119057278223     -3.63997334657533
  C   11.51334194958739     -2.54432800559136     -1.73843434560003
  H   12.23867579665107     -1.84955145633305     -1.29422367750462
  H   11.58537491844223     -3.49217347603508     -1.18419692908675
  H   11.81574327850981     -2.74115909731100     -2.77408302915188
  H   10.33453752356647     -1.14056524885460      0.29467749539682
  C   8.01809646411549     -0.09327701089251      0.80491297299075
  N   6.80732573254791      0.20532007815290      1.17025908013511
  O   5.32295563437221     -2.09159260438132      0.57422659834536
  O   6.72007894542348      0.90988130212474      2.34476155521137
  H   5.73948430483884      1.00495437765117      2.50679666274588
  H   8.83860529903300      0.19467790122779      1.46744570784234
