84
Coordinates from ORCA-job BUQWAM_1_3_tpss_d4_lanl2dz_631gpol_Fe2.opt
  Fe  -2.00160661975032      9.30069611757006      5.14973110230273
  H   -2.00016026279539     10.87732550573670      5.15023273269608
  P   -3.51386701048726      7.98106655348133      4.18091377956279
  P   -3.42810209822910      9.54305654558513      6.77398648506197
  N   -5.77490299609788      9.23287082745886      5.27948133094056
  N   -4.94404878266579      7.23039482574330      6.46445304838585
  C   -6.10769390695573      8.00710633721684      6.02033559422856
  H   -6.72045322795985      7.37081666539407      5.37050445173552
  H   -6.68987359450201      8.28775757636325      6.90608550680616
  C   -5.16115077044234      8.93959807356931      3.98910255639402
  H   -4.96436551941331      9.87138270353368      3.44660975153330
  H   -5.85715998782519      8.32802090883802      3.39739124903854
  C   -5.07844522506718     10.21808543585135      6.11751790196916
  H   -5.73660233113775     10.48186008585545      6.95834387531337
  H   -4.87835457399699     11.12496414942344      5.53528177312065
  C   -4.19501803013523      6.64408560631461      5.35228747036177
  H   -4.86729298416991      5.97281898792715      4.79739947118188
  H   -3.36213295913739      6.05614072538342      5.75741013278593
  C   -4.14640430564598      7.94029838873546      7.47619590033070
  H   -3.33099567165241      7.29462605817187      7.81879021557796
  H   -4.80219286818226      8.14478508980975      8.33436752700522
  C   -3.26824684444194      7.15681594524844      2.57222748694145
  C   -3.19779310158223      7.95116640866653      1.40779809218854
  H   -3.38510810115350      9.02201925138352      1.46404223611377
  C   -2.86317541157450      7.37496359489159      0.17827739628918
  H   -2.81183199726361      7.99881219141985     -0.71221841872685
  C   -2.58956659508081      6.00197716123554      0.09578150407822
  H   -2.32408506689023      5.55525097639591     -0.86046512028782
  C   -2.66105813740688      5.20355767471611      1.24557291663227
  H   -2.45526894526936      4.13643341019672      1.18313825068741
  C   -2.99761544695899      5.77587386499781      2.47892661410863
  H   -3.04418051805197      5.14354494278838      3.36534217083256
  C   -2.98152102055314     10.57330997444222      8.20943822005034
  C   -1.78665557052861     11.31750962971903      8.13295365258705
  H   -1.21378882974899     11.28315935957524      7.20454959114928
  C   -1.35862138401883     12.08273200549118      9.22299876961674
  H   -0.43709358266744     12.65887407594606      9.15660457840029
  C   -2.12012706751567     12.10833672002244     10.40041547637023
  H   -1.78772187438374     12.70106047499400     11.25071714536287
  C   -3.31399929720539     11.37715197789798     10.48257611541332
  H   -3.90792999701714     11.40399639958529     11.39443331178686
  C   -3.74565452125526     10.61306184502414      9.39277927211020
  H   -4.67570661546455     10.05116504360995      9.46969617149335
  P   -0.48931110150606      7.98070825165527      6.11793643833189
  P   -0.57549061271304      9.54285303618765      3.52519662586771
  N   1.77155311602804      9.23295268753317      5.01924752648793
  N   0.94082885824664      7.23040356439718      3.83428872370702
  C   2.10441873782152      8.00723171543628      4.27833956602444
  H   2.71730617389902      7.37100826637242      4.92812063098582
  H   2.68649779160614      8.28796412784098      3.39254841830759
  C   1.15785564619581      8.93959777263304      6.30962457966000
  H   0.96088577770796      9.87137645038671      6.85204970414974
  H   1.85397738612836      8.32816950678030      6.90135340358173
  C   1.07492669738432     10.21808551180898      4.18122914791846
  H   1.73292622919168     10.48179740648063      3.34026863504564
  H   0.87483856533601     11.12497896080651      4.76344057111975
  C   0.19197499237365      6.64388086538387      4.94649196965613
  H   0.86438173049117      5.97267419485666      5.50128801894419
  H   -0.64083203225901      6.05583044990709      4.54134943327332
  C   0.14295124240089      7.94031790872084      2.82269865858419
  H   -0.67231232666525      7.29449729891951      2.48005319250898
  H   0.79867764040168      8.14508286475879      1.96455241587862
  C   -0.73486717669912      7.15639669248004      7.72658507539391
  C   -0.80561258632866      7.95082475547111      8.89093517962643
  H   -0.61874851918872      9.02175587317054      8.83457365699242
  C   -1.13997339244411      7.37461259820221     10.12050271739649
  H   -1.19145887688969      7.99851364183066     11.01095741280337
  C   -1.41311600230680      6.00152726757196     10.20310816766615
  H   -1.67845118718150      5.55478434683022     11.15938698534465
  C   -1.34138405779397      5.20303694496691      9.05336821347760
  H   -1.54681224415587      4.13584865011983      9.11588675026620
  C   -1.00499028618635      5.77537659716671      7.81996897678261
  H   -0.95811985566145      5.14298617900045      6.93359533604862
  C   -1.02306942996857     10.57323469059567      2.09014688982193
  C   -2.21785318922858     11.31746532702562      2.16769507450105
  H   -2.78980997819748     11.28319379913651      3.09667193925052
  C   -2.64698599578209     12.08246854639903      1.07793861282511
  H   -3.56846530519643     12.65859937446198      1.14512548004472
  C   -1.88671043918059     12.10778068495059     -0.10027762436731
  H   -2.22001666771997     12.70027397032504     -0.95039161823251
  C   -0.69292417077555     11.37656231450897     -0.18352154986398
  H   -0.09991985446411     11.40323986891263     -1.09598535787950
  C   -0.26015306730020     10.61269138627719      0.90600512044632
  H   0.66976142286269     10.05068555351764      0.82823961209055
