84
Coordinates from ORCA-job BUQWAM_1_5_tpss_d4_lanl2dz_631gpol_Fe2.opt
  Fe  -2.00137474598527      9.22222622907890      5.14980591750394
  H   -1.99710016526269     10.90805385152625      5.15024333167671
  P   -3.81841891383545      8.25789591403162      3.95490752798375
  P   -3.64257039766945      9.13052780014596      6.95957135190568
  N   -5.81675308556196      9.72263428598520      5.26012704195252
  N   -5.58607193022568      7.37740497079821      5.99407102098943
  C   -6.49250030841882      8.49109569582287      5.68192965030981
  H   -7.16374419910547      8.17156587271041      4.87551949555498
  H   -7.08248396598802      8.71285415481979      6.57917816367011
  C   -5.17740048213043      9.59283843882745      3.94990246485974
  H   -4.73152967478353     10.55118291268447      3.66124631128937
  H   -5.95299003392051      9.32459536419207      3.21745769279526
  C   -5.01065830565055     10.31269045324869      6.33202196260988
  H   -5.67902335972119     10.56950780983527      7.16618396872965
  H   -4.52446215794313     11.22653181678535      5.97194036445740
  C   -4.86807464232892      6.90124854390765      4.81319378007705
  H   -5.60464537787436      6.53408386953936      4.08438589933698
  H   -4.21493413439438      6.06580350181690      5.09138817383258
  C   -4.78526134037425      7.63244578677325      7.19788756384323
  H   -4.18677515301246      6.74710205893051      7.44213734363279
  H   -5.48519641012835      7.81516873206172      8.02617923577109
  C   -3.59852644286050      7.66173486326893      2.24589134325775
  C   -4.08335486002673      8.34941574334161      1.11771059541839
  H   -4.69355197088552      9.24267802781976      1.23525750216418
  C   -3.76765883626255      7.89932205714010     -0.16926710211780
  H   -4.14402083914817      8.43941610839970     -1.03551897866016
  C   -2.96699589702864      6.76352262689294     -0.34374925402366
  H   -2.72624312606097      6.41607827336844     -1.34676271425924
  C   -2.47182579943843      6.07649856504606      0.77338660028696
  H   -1.85201163572738      5.19116046542514      0.64046666489862
  C   -2.77682273171109      6.52888193741183      2.06079125922873
  H   -2.38181499426199      5.99706342307384      2.92853984286044
  C   -3.17587413943505      9.77004124414456      8.59848153858922
  C   -2.26029444784106     10.84643615962437      8.59271063940513
  H   -1.90798401812056     11.23723848085260      7.63555408455955
  C   -1.81812476056425     11.40242591611428      9.79628696971461
  H   -1.12555611984005     12.24273788354314      9.78480057752929
  C   -2.26576729273961     10.87573230588008     11.01667608783288
  H   -1.92151121363993     11.30655653423561     11.95529175576560
  C   -3.15548044637381      9.79366515147503     11.02906010159555
  H   -3.49824708019653      9.38055276438536     11.97614283714795
  C   -3.61242817525506      9.24034113095698      9.82672257959125
  H   -4.30207226683019      8.39863481518826      9.85502533054307
  P   -0.18602775503998      8.25460911503967      6.34315344281279
  P   -0.36103584996475      9.12917253674051      3.33935227836911
  N   1.81245854983391      9.72128629440217      5.03932471131415
  N   1.58299323497953      7.37640621345212      4.30407105053100
  C   2.48891140886353      8.49019215999151      4.61736913662546
  H   3.15972130237217      8.17046573568302      5.42406062846442
  H   3.07939683597383      8.71257830882811      3.72060831158424
  C   1.17223276348939      9.59058550225454      6.34893050814674
  H   0.72540454563079     10.54848702383304      6.63756016227552
  H   1.94736127530916      9.32248759785421      7.08191240141200
  C   1.00679800577081     10.31145589900554      3.96727327099587
  H   1.67539620788931     10.56802479046729      3.13322307743520
  H   0.52057250500632     11.22534600905510      4.32712552047210
  C   0.86467207098590      6.89904728292598      5.48428444343019
  H   1.60108912637692      6.53176845695537      6.21319278368158
  H   0.21215687341265      6.06343460141510      5.20512748077511
  C   0.78267540660018      7.63199808438171      3.10000631372247
  H   0.18509105719193      6.74637508164472      2.85452368041387
  H   1.48296555027975      7.81622093392063      2.27234170598746
  C   -0.40503441623704      7.65900285387039      8.05249634336125
  C   0.07742478978497      8.34956813653853      9.17997169880431
  H   0.68558009098798      9.24411005560240      9.06148167800737
  C   -0.23822983246660      7.90096953691639     10.46742787417248
  H   0.13617194698061      8.44349072999077     11.33300781317388
  C   -1.03658959770534      6.76367411383593     10.64318982995378
  H   -1.27756441797860      6.41764520179438     11.64663907521493
  C   -1.52933757354674      6.07368429454573      9.52683103729117
  H   -2.14735789696363      5.18714715986425      9.66068895179167
  C   -1.22431630790501      6.52462600235523      8.23884647802055
  H   -1.61762858160684      5.99041557760930      7.37181373107225
  C   -0.82821817798363      9.76970489980811      1.70102642531082
  C   -1.74246930193471     10.84724148127606      1.70774768579305
  H   -2.09327080887226     11.23845953184048      2.66526874050657
  C   -2.18539475208337     11.40356219537288      0.50459975740729
  H   -2.87723268092185     12.24443459444530      0.51674398818122
  C   -1.73953706434129     10.87646223421753     -0.71626277843264
  H   -2.08426921046775     11.30780707497913     -1.65447356605441
  C   -0.85094042349596      9.79349065994318     -0.72951054613273
  H   -0.50928992475115      9.38032964283997     -1.67690598218018
  C   -0.39350312023074      9.23947191951208      0.47235591049544
  H   0.29511002534095      8.39696793387929      0.44339842168125
