86
Coordinates from ORCA-job BUQWAM-OH_1_2_tpss_d4_lanl2dz_631gpol_Fe2.opt
  Fe  -2.00785447363512      8.41314739739957      5.14595449313228
  H   -2.01448190789362      9.97589539964729      5.14892476097728
  O   -2.13965619860056      6.53313321790652      5.06434442925157
  P   -3.78106747904974      8.25738306346225      3.79192829582606
  P   -3.47180909540620      9.07026257200952      6.66865325751591
  N   -5.57044322078953      9.96438978686765      5.01561828669509
  N   -5.63874441986131      7.59969220741056      5.77800590350341
  C   -6.38742287059013      8.82710121513905      5.46930666058282
  H   -7.11130292105953      8.59126245667902      4.67998137856412
  H   -6.92641686443049      9.13757895205080      6.37293176157228
  C   -4.94667419881513      9.71838329139131      3.70122966774347
  H   -4.41327748455804     10.61862286980518      3.37399317680393
  H   -5.75889037471962      9.52101990174715      2.98694465053148
  C   -4.65490602789699     10.41571096931773      6.06850214733819
  H   -5.25635748453297     10.75589506083648      6.92419605268129
  H   -4.05974027388675     11.26280656251259      5.70386641282304
  C   -4.99036358850373      7.04069725898933      4.58242232348361
  H   -5.77196108622675      6.77706390530397      3.85592126148497
  H   -4.41843366104154      6.14510210191092      4.84725548758735
  C   -4.77896049337964      7.74006301015788      6.95973621231070
  H   -4.29203442225599      6.78276849959094      7.17382274491347
  H   -5.41603820805427      8.01932229775162      7.81195201918731
  C   -3.51501877427689      7.61084690410977      2.10877464156865
  C   -4.13094578743097      8.15655153506349      0.96792942677505
  H   -4.78451767751796      9.02250578170812      1.04833181893831
  C   -3.88367422523327      7.60071436359629     -0.29336122760645
  H   -4.35885070946614      8.03095195172717     -1.17315380344091
  C   -3.02848500523109      6.49942027868642     -0.42423710289851
  H   -2.84641720372981      6.06607862524456     -1.40621430813796
  C   -2.40832704011422      5.95519784643143      0.71011868171268
  H   -1.74722704755431      5.09537717588920      0.60990349116778
  C   -2.64306306749451      6.50908205859566      1.97213793938086
  H   -2.17649049331331      6.10112813367592      2.86919963392378
  C   -2.90676580470464      9.73096333116628      8.26867968535373
  C   -2.07069860474716     10.86575461749608      8.23646988952942
  H   -1.80673136045441     11.30838461751089      7.27493029929920
  C   -1.58485009923332     11.42085771075562      9.42445249305433
  H   -0.94772830912813     12.30322737060713      9.39214089834749
  C   -1.92287843352442     10.83986930458421     10.65481271431617
  H   -1.54194486503559     11.26654206329305     11.58083085101850
  C   -2.75218615173619      9.71143775188705     10.69316079999786
  H   -3.01135929620253      9.25714700583183     11.64747205995357
  C   -3.24728289567422      9.15787319728595      9.50678906278554
  H   -3.87639177738605      8.27156617398525      9.55173198924074
  P   -0.24811925604199      8.26442328071720      6.49098061777848
  P   -0.55038063683565      9.07901013880197      3.62078610654775
  N   1.52426602208602     10.01586207248017      5.27994781085010
  N   1.65708048516370      7.65579477989011      4.51927056558993
  C   2.37189791665824      8.90606630239467      4.82090106675849
  H   3.11051422352741      8.69160372700036      5.60287352795057
  H   2.89238014775823      9.23072186781288      3.91178734289503
  C   0.90212559042000      9.74404455076272      6.58771577223997
  H   0.35082554296429     10.62869203442091      6.92475882907067
  H   1.71587430952072      9.55162401573855      7.30148327553439
  C   0.60314280655243     10.44871434219116      4.22331456478448
  H   1.20214293922667     10.80254586686584      3.37169088205282
  H   -0.01113751317089     11.28263689850074      4.58651027839590
  C   1.04132627693762      7.09264301685325      5.72768390026751
  H   1.83594824690623      6.90846613172051      6.46534227558110
  H   0.58824225592007      6.12250094661249      5.48481923506087
  C   0.78092762929763      7.77137428776371      3.34151026655126
  H   0.30833007532652      6.80363906438737      3.13591247458555
  H   1.41084638637431      8.04659591183003      2.48300954532977
  C   -0.49984758805505      7.60107746826559      8.17293374129446
  C   0.19170732219107      8.06564722722083      9.30645878243980
  H   0.90666295587612      8.88174457779406      9.22740761883816
  C   -0.05258264522898      7.49219342548776     10.56050429744897
  H   0.48099437538078      7.86253941585962     11.43400402516148
  C   -0.97777063794287      6.44917455234625     10.69329659301675
  H   -1.15697071634877      6.00184371345577     11.66932066775485
  C   -1.67499357494452      5.98472906304566      9.56888130866195
  H   -2.39768103699534      5.17631805769588      9.66875439820939
  C   -1.44682765792138      6.56405281628060      8.31738692005842
  H   -2.00443649156585      6.22591568265244      7.44281142242796
  C   -1.09610739125523      9.72636993446412      2.00974659708279
  C   -1.91324413191007     10.87558247690727      2.02258559926938
  H   -2.19313600964710     11.32495677605232      2.97645970413729
  C   -2.35974584165508     11.43765770861284      0.82252535609119
  H   -2.98133340249899     12.33140897242664      0.83864711979028
  C   -2.00201477627242     10.84956729797566     -0.39901579968999
  H   -2.35121812184300     11.28326130307339     -1.33421764815677
  C   -1.19834391268983      9.70238825498769     -0.41662049965112
  H   -0.92888001853501      9.23935307394044     -1.36378904305702
  C   -0.74229805871257      9.14088708283436      0.78154030700883
  H   -0.13575521468495      8.23838046000371      0.75275850100044
  H   -1.36874948895550      6.05810162485307      5.43267037424802
