60
Coordinates from ORCA-job EPEKIU-CH3OH_1_4_tpss_d4_lanl2dz_631gpol_Mn2.opt
  Mn  -5.22077942371523      4.17017665155741      7.82841852207296
  Cl  -7.08129125102100      5.35582037475890      8.52720455657053
  N   -3.87050432028519      2.91717121094963      7.06842288608100
  N   -5.34266467942000      4.68561482040319      5.92248896657491
  N   -4.74554386636951      3.74716603778326      9.71609333795547
  N   -3.63779057062436      5.63231388189024      8.25805239432537
  O   -6.84929677030680      2.40649907132848      7.76522243181487
  C   -3.22966125597835      1.91352078295663      7.72247071679985
  C   -2.21483495134458      1.16921109554422      7.14235626610374
  C   -1.79092583785420      1.45580660841398      5.82292136575617
  C   -2.46252259012833      2.47804355812234      5.14909645534544
  C   -3.50776842077467      3.18300908560426      5.76789740469356
  C   -4.33489368836105      4.18920239911549      5.12172376875722
  C   -4.18916506555305      4.61820295590806      3.79218777391924
  C   -5.07989443934459      5.53787272547017      3.23424557630188
  C   -6.12213860641319      6.00936710397642      4.06765846481968
  C   -6.22010178494108      5.57558551741450      5.38011775155602
  C   -0.66733232780996      0.68256283991510      5.17935636778328
  C   -4.94871567568833      6.00788975848236      1.80745979794096
  C   -5.44371249008598      2.83845155554459     10.44319863774473
  C   -5.16063541313902      2.57646413199458     11.77689238341856
  C   -4.11377302882968      3.26536146412151     12.42236765644583
  C   -3.40337861900494      4.20086343295000     11.66036702487434
  C   -3.73179734536328      4.44009344745774     10.31870844182053
  C   -3.07297304276613      5.45652974630708      9.48184540187540
  C   -1.96933783205229      6.21938542172862      9.89381450316568
  C   -1.43795495838467      7.20489033910044      9.05200157086467
  C   -2.05271769998879      7.38199630924453      7.79682086863909
  C   -3.13399719248345      6.57922773460918      7.44321534613977
  C   -3.79263483912299      3.01943739162395     13.87526780045980
  C   -0.26404918886173      8.05388492480567      9.47477967442301
  H   -3.55835546934926      1.72911051454055      8.74067454628967
  H   -1.74351681152230      0.37405790700839      7.71620630956645
  H   -2.18269031122419      2.72091215956087      4.12661782613092
  H   -3.37685485958692      4.22179882305727      3.18723195253876
  H   -6.85267595353018      6.72293309237637      3.69249973817004
  H   -6.99263507036984      5.93146056255624      6.05644457037188
  H   -0.49943119066505      1.00362959684382      4.14526658522354
  H   -0.88658037987397     -0.39410622439232      5.17570239174101
  H   0.26909168112750      0.82008633541846      5.73846732288063
  H   -4.84588922024562      7.10122264435235      1.76537011988348
  H   -5.84604860916778      5.74585674179543      1.22935400604701
  H   -4.07888788305449      5.56010215978660      1.31360674091788
  H   -6.23495505070987      2.32413320550632      9.90468284729226
  H   -5.75706241306045      1.84031881054969     12.31154396170348
  H   -2.59969648628591      4.76633718246932     12.12493972149887
  H   -1.51853573201777      6.05395901607658     10.86948991628895
  H   -1.69084257615615      8.13784071912822      7.10247149478399
  H   -3.62975920048013      6.68859789772915      6.48114229173413
  H   -3.64832244378699      1.94809911408188     14.06922334519390
  H   -4.62283070054089      3.35586150123602     14.51243114178165
  H   -2.88739989991982      3.55406962833243     14.18383457799990
  H   0.52628748990927      8.03826997258935      8.71255890043774
  H   0.16138010609787      7.70780970296291     10.42335416748701
  H   -0.57379643058130      9.10090089602136      9.60103750562426
  C   -7.04341733736051      1.66155115459244      6.54188250916489
  H   -7.94196608838753      1.03606409957239      6.61394924066607
  H   -6.16224049527658      1.02434121674807      6.43080350286657
  H   -7.12046414298505      2.33384075506569      5.67677252532231
  H   -7.59905734497920      3.03444843535123      7.88697612534838
