54
Coordinates from ORCA-job EPEKIU_1_2_tpss_d4_lanl2dz_631gpol_Mn2.opt
  Mn  -5.17067315603975      4.31412980185018      7.79059469644971
  Cl  -7.12454534124846      5.25990398046593      8.42483324629030
  N   -3.90970029497289      3.02503542469741      6.99341144408096
  N   -5.36890163966964      4.80870561770112      5.88193000240788
  N   -4.93106962875761      3.73117954179218      9.64217900647447
  N   -3.67420256162470      5.44808618258920      8.27679727241714
  C   -3.21114013740215      2.07618959009379      7.66868026187120
  C   -2.33174395998526      1.20254564126243      7.04354219505222
  C   -2.12050417749594      1.28690876108930      5.65174742434300
  C   -2.83668760733243      2.27239070464648      4.96222965144069
  C   -3.72459296138376      3.11942542073300      5.63766019762251
  C   -4.54609155177506      4.14983452563553      5.00354422361189
  C   -4.53791374666880      4.45045563088770      3.63562308468875
  C   -5.38226186395127      5.44122372344174      3.11915353379951
  C   -6.22683037454624      6.09903594148477      4.03608874016540
  C   -6.19980100373788      5.76237323564290      5.38443397554830
  C   -1.17694308606762      0.34839129297803      4.94253360072252
  C   -5.39816367880993      5.78371359093998      1.65039459525545
  C   -5.72297575670326      2.83346943814939     10.27822643880521
  C   -5.50548884282196      2.45711276188017     11.59753584714057
  C   -4.44703224542457      3.03416611578149     12.33207133889349
  C   -3.65021350805166      3.97809822893350     11.67323951461933
  C   -3.90840478469218      4.31439376211546     10.33772698381530
  C   -3.18942825292909      5.31272734043354      9.55293730764109
  C   -2.12489791513639      6.09754636623392     10.01366898327310
  C   -1.53157795300312      7.05496680827379      9.18315789565716
  C   -2.05053711506295      7.17818675625073      7.87727192980384
  C   -3.10095428740091      6.36967626065716      7.46310115276768
  C   -4.20971676309791      2.66575439088505     13.77546037268935
  C   -0.39908260114451      7.92896852463292      9.66173578850881
  H   -3.37968690431976      2.03886562399296      8.74019785702106
  H   -1.80546182820288      0.46155549932103      7.64156858593131
  H   -2.70992765534381      2.37484269258817      3.88721096458069
  H   -3.87074054054829      3.91118362811721      2.96728237090883
  H   -6.91158727832697      6.87547198165666      3.70158278746426
  H   -6.84595174793558      6.23870139064338      6.11653923185147
  H   -1.02077422022885      0.64735222912249      3.90016372035639
  H   -1.57834405742956     -0.67519620084209      4.94763807073472
  H   -0.20185476567163      0.31748377607268      5.44658861356647
  H   -5.24065190937243      6.86004376790887      1.49871730475407
  H   -6.37294523184036      5.53355379712654      1.20850962176422
  H   -4.62303367201912      5.23805177497742      1.10082892118628
  H   -6.55350740205771      2.44223416008241      9.69629334224049
  H   -6.17062907209341      1.73162796122892     12.06063234494843
  H   -2.83245437249608      4.45915278615443     12.20482180168857
  H   -1.76469629294937      5.96803965796465     11.03170758985341
  H   -1.63417338870517      7.90361062216874      7.18150494190409
  H   -3.51728468654129      6.44288727422526      6.46367586040092
  H   -4.12087029915952      1.57739386710357     13.89297228247409
  H   -5.05541077489238      2.99203378720488     14.39706077370447
  H   -3.29911872694673      3.13350037921371     14.16584194877900
  H   0.44131217472266      7.90415181999045      8.95528147253954
  H   -0.03511970161215      7.61233769532532     10.64555273661774
  H   -0.72801084909118      8.97502466649295      9.74011614887150
