55
Coordinates from ORCA-job EPEKIU-oxo_1_4_tpss_d4_lanl2dz_631gpol_Mn2.opt
  Mn  -5.27890455501812      4.18522048414469      7.76503392314284
  Cl  -6.57142786808312      5.87858885710863      8.57088746453025
  N   -3.91445070568930      2.94093892739320      6.95343538211741
  N   -5.36518888443146      4.78411230149407      5.84651752058297
  N   -4.91405533496962      3.64053916670924      9.64462308815459
  N   -3.61307831726633      5.42572283873270      8.25525648247780
  O   -6.47884030187169      3.04916227811810      7.56975999589469
  C   -3.22349957695088      1.99670327914230      7.62178872023237
  C   -2.30885848324442      1.15711355623064      6.99288795619004
  C   -2.08235829253625      1.27718078396152      5.60958957426930
  C   -2.81124662140627      2.26205590996106      4.92845669094449
  C   -3.72230595246354      3.07547324068284      5.61240012964450
  C   -4.55439937185356      4.11011254372672      4.98131156604631
  C   -4.55749777255609      4.39888609831303      3.61285691896054
  C   -5.41508973565821      5.38144052485078      3.09488089354862
  C   -6.24973428825964      6.04751416044109      4.00941302424061
  C   -6.20306527082699      5.72689744518967      5.36447027513080
  C   -1.11840052052785      0.36866649694810      4.88862644818049
  C   -5.46004638730339      5.68857847362400      1.61907818540129
  C   -5.69127070937508      2.73369019412935     10.27332487801117
  C   -5.50943676525787      2.42658441016152     11.61883002295348
  C   -4.50154161830922      3.07496864734754     12.35627541032578
  C   -3.70797744772106      4.01635619480687     11.68001587510039
  C   -3.93295006166890      4.29443302425836     10.32837928242894
  C   -3.19038302185430      5.29646138117706      9.54029174664049
  C   -2.15344301971690      6.08690789468640     10.05131781607286
  C   -1.52902546101304      7.04538984064665      9.23981884772887
  C   -1.98634758485300      7.16113957021742      7.91436936799965
  C   -3.02065333300791      6.34117912512916      7.46822187972574
  C   -4.30461632041294      2.79892137267766     13.82552246707710
  C   -0.42796585940389      7.93042523372458      9.76931776769208
  H   -3.42754772858168      1.92057105219381      8.68466489603797
  H   -1.78045241411567      0.41021529728214      7.58123375292320
  H   -2.67148961550145      2.38810961238045      3.85786171652938
  H   -3.90048036464043      3.85219438784076      2.94105076276141
  H   -6.94339384292117      6.81526210383659      3.67400307938250
  H   -6.83299808916115      6.21328749129875      6.10367630439244
  H   -0.87334039482272      0.75173722309223      3.89181652506349
  H   -1.55962527368467     -0.63137334458540      4.76826724538419
  H   -0.18814352218406      0.24884138339359      5.45807082582698
  H   -5.52100189098659      6.76965093273196      1.44278803304350
  H   -6.35312910427437      5.23309286333536      1.16701402074838
  H   -4.57998841757270      5.29513660772279      1.09798909767872
  H   -6.45967538664878      2.29111886414568      9.64322288000368
  H   -6.15845166261128      1.69194300189884     12.08993881874524
  H   -2.92337828181615      4.54065260412439     12.21952656680623
  H   -1.83266764210512      5.97062242442102     11.08358643597395
  H   -1.54640876061052      7.88903772157432      7.23588009143494
  H   -3.40665153294841      6.41673419483553      6.45509908685834
  H   -4.48779407664974      1.74345160295622     14.05985803971996
  H   -5.01732077781052      3.39454684727027     14.41502316421038
  H   -3.29366681485857      3.06487652083661     14.15496013172037
  H   -0.77636387234960      8.97054543288031      9.83983769806820
  H   0.43953972890685      7.92238190447890      9.09643064101213
  H   -0.09951081853985      7.61319901431905     10.76524058422639
