60
Coordinates from ORCA-job EPEKIU-CH3OH_1_6_tpss_d4_lanl2dz_631gpol_Mn2.opt
  Mn  -5.10971169049097      4.26072301363789      7.86677253694186
  Cl  -7.04332054550095      5.56680222729905      8.49802259903087
  N   -3.70333134453846      2.88302344937457      6.78505930907061
  N   -5.15218310348973      4.83879722762952      5.70441858717125
  N   -4.54525709308875      3.58567708566075      9.90844893324188
  N   -3.42102970229078      5.56064560945522      8.50541330841287
  O   -6.72100523528699      2.62684303776179      7.80036205499194
  C   -2.91979135476072      1.98698882711754      7.41583748398262
  C   -1.90072091927469      1.28474815998669      6.77513786550912
  C   -1.65337735523643      1.51985237642390      5.41019187583249
  C   -2.46784202467929      2.46096673283835      4.76296912587520
  C   -3.48787050496412      3.11970922745893      5.46506332439377
  C   -4.39232291105815      4.11740316211645      4.83915757918459
  C   -4.48533778480474      4.30883019495791      3.45390006195543
  C   -5.36161173819154      5.27226785166412      2.92905305088700
  C   -6.13223543995013      6.01074714671054      3.84512145169197
  C   -6.00598591566379      5.76103863522940      5.21138390738249
  C   -0.56049064873852      0.78481833582012      4.67362082003751
  C   -5.47362481415677      5.50668564075800      1.44260375902030
  C   -5.24178469092084      2.65203852766022     10.58920605650216
  C   -5.12840047622388      2.47977636850560     11.96725527118084
  C   -4.27055786180201      3.31787739820415     12.70122886459742
  C   -3.55273014668086      4.28780834028242     11.98474491651173
  C   -3.70334294951389      4.40125418295559     10.59634879891675
  C   -2.98923920020259      5.41971244709674      9.78540601887818
  C   -1.93726140889541      6.19915892866522     10.28575410717447
  C   -1.31927551911282      7.16456851795590      9.47600802984570
  C   -1.78915517762101      7.29604873897701      8.15756142225133
  C   -2.82973195450396      6.47858294907628      7.71923508253469
  C   -4.15411104672421      3.20307214018133     14.20106797582031
  C   -0.21283131295959      8.04109057754012     10.00925960001535
  H   -3.13276297436571      1.84281470059214      8.47307449286009
  H   -1.30287678905502      0.56760927586847      7.33409922332194
  H   -2.28948950385908      2.68615515879953      3.71417084143961
  H   -3.89369945063037      3.70081095499059      2.77350345615821
  H   -6.83333375827101      6.76813683136386      3.50037631661217
  H   -6.59778748289510      6.28750036447306      5.95889543148018
  H   -0.38238235958642      1.21582972777856      3.68208226161849
  H   -0.83350534112434     -0.27202063015349      4.54158159705708
  H   0.37975575998391      0.80919337809596      5.23952851008205
  H   -5.08999008461836      6.50358254038790      1.18290873589920
  H   -6.52207464474944      5.46837251103349      1.11932223801741
  H   -4.90551395300942      4.76302751919149      0.87264898987680
  H   -5.91218313293077      2.04261071966465      9.98673775477136
  H   -5.71327056466295      1.70840802543798     12.46408096483105
  H   -2.89556330112933      4.96709247007440     12.52225347349885
  H   -1.58520257632781      6.05572107949397     11.30443661911540
  H   -1.35026093233530      8.02552158086618      7.48000712697430
  H   -3.22057791440644      6.55195827928530      6.70632336419608
  H   -4.12841050918873      2.15245150806136     14.51625542769506
  H   -5.02595512610612      3.66849316733049     14.68357309714837
  H   -3.25471624005298      3.70525998429014     14.57525250287286
  H   0.52258079700476      8.27377157732790      9.22972668256684
  H   0.30431051774607      7.56733811171238     10.85186965031304
  H   -0.62810963619022      8.99521154516670     10.36600900556509
  C   -7.10165639540000      1.97693994502859      6.56449326958238
  H   -7.97086514619072      1.32967992103087      6.73181094991689
  H   -6.24417234886527      1.37080511445171      6.26154289062476
  H   -7.32723153603656      2.71628025792725      5.78482934699311
  H   -7.42952350142009      3.26901732142664      8.06020200006751
