24
Coordinates from ORCA-job ATOFAS_0_6_tpss_d4_lanl2dz_631gpol_Fe3.opt
  Fe  8.64876286552973     10.26882027517910     15.10732988258806
  Cl  6.56210333698823     10.99178896149109     15.68384131099301
  Cl  8.15566864847878      8.24936265968470     14.17390503391696
  Cl  9.66921105232398     10.19032407462842     17.14134266459072
  C   11.13236165333853     10.96995835454029     13.41962873805460
  N   10.65725184652233     10.01448170207591     14.24598394265972
  C   11.40810355400713      8.93968482769587     14.53948339033320
  H   10.95225594983785      8.21743316927779     15.21134600987821
  C   8.10362331862829     12.99985031987314     13.67859581765168
  H   7.17320649818429     12.86921519635744     14.22450223681903
  C   13.19518375845332      9.75149960388902     13.15098222006479
  H   14.18940218545520      9.65250908660172     12.72014322737592
  C   10.20282024855841     12.09469104125600     13.18815764528310
  C   8.34332176772032     14.11380615263688     12.87080481772563
  H   7.58114496314652     14.88280456590591     12.77695023840759
  C   9.56623079533261     14.20737532699845     12.20133411323575
  H   9.78942571564254     15.05998013912275     11.56320695880671
  N   9.00828549692509     12.01126362684527     13.83691894085734
  C   12.41074244322450     10.86688927835582     12.84881450492450
  H   12.78988778528451     11.63750801399610     12.18356240337852
  C   10.50544771234986     13.18619719822848     12.36236205683417
  H   11.46231137266347     13.23922745297195     11.85129063133186
  C   12.68938875075850      8.76930922888792     14.01052046300396
  H   13.27075828064553      7.88811974349949     14.26869275128442
