30
Coordinates from ORCA-job ATOFAS-CH3OH_0_2_tpss_d4_lanl2dz_631gpol_Fe3.opt
  Fe  8.94115290526376     10.17620085455977     14.80617974249401
  Cl  6.70264696769892     10.50130971195314     15.03613824283230
  Cl  8.66755649698828      8.17033713376354     15.89859730493540
  Cl  9.53867744879028     11.32108779900829     16.64775546369746
  C   11.41600789920333     10.87437266024464     13.61232108632145
  N   10.85048530228117      9.92013761142529     14.40090192507310
  C   11.60185473139337      8.90628700445162     14.87206700429090
  H   11.07469913306993      8.20047188308072     15.50932514395151
  C   8.32017588667999     12.76697365591122     13.53819220241943
  H   7.35287999106048     12.58512151333706     14.00008740665707
  C   13.54778530430063      9.75368446879367     13.72840655780716
  H   14.60131812209497      9.68928878201143     13.46460792800066
  C   10.49638707434737     11.94889309156714     13.23713393325578
  C   8.60758125167057     13.90561690543429     12.78490001351860
  H   7.83720670444291     14.65946413172622     12.64501649984720
  C   9.88386945813295     14.05427259996599     12.22975004000618
  H   10.13493615738824     14.92986643859406     11.63487185998595
  N   9.23867114254988     11.79967453633193     13.74495354965139
  C   12.76843223101070     10.80922349585950     13.25258312231244
  H   13.20576102476566     11.57711229055895     12.62044121679912
  C   10.84047565693709     13.06547633164689     12.46393820677279
  H   11.84514627420667     13.16291068140874     12.06183013270463
  C   12.95682089978756      8.79212899386135     14.55590868888009
  H   13.53043996668344      7.96190285978178     14.95946197006260
  O   8.57398198463288      8.99469967575285     13.16785767872228
  C   7.71914550091843      9.45137427995653     12.08540526659804
  H   6.77879593774169      9.84521439039974     12.48649086737112
  H   8.27734819305132     10.23564397394552     11.56830303352800
  H   7.54527091647237      8.60860870245846     11.40680166027635
  H   8.12335943643402      8.27183354220828     13.67985225122531
