25
Coordinates from ORCA-job ATOFAS-oxo_0_4_tpss_d4_lanl2dz_631gpol_Fe3.opt
  Fe  8.64233444325988     10.16357304589486     14.63456786522766
  Cl  6.60350089896703     10.73913398542035     15.34281519136537
  Cl  8.55854655831366      8.21629024614168     15.72374472745844
  Cl  9.63781005997342     11.21887547373238     16.47500232088898
  C   11.10191927974552     10.92965771720384     13.35771762349885
  N   10.55824475638617      9.88810134466802     14.04290886932329
  C   11.29228939313930      8.78973783583191     14.28938906801885
  H   10.79191843091168      8.00437142097412     14.84747265339105
  C   8.07097880545047     12.92164923488287     13.62134526340048
  H   7.10970958740074     12.73056011956412     14.08826317589701
  C   13.19406931384140      9.74105956467486     13.15781706114720
  H   14.22483764709946      9.68868069097240     12.81409450578746
  C   10.20833355385862     12.07470102546948     13.17044881446347
  C   8.36685443808695     14.12028167023705     12.96909501988373
  H   7.60868403134433     14.89714845500276     12.91801077451036
  C   9.63145204667067     14.28960834816607     12.39984971981051
  H   9.89319437740675     15.21182450305257     11.88573937889534
  N   8.97253527142280     11.92943661999988     13.71818784990165
  C   12.42518478703383     10.87749683399921     12.90268911383689
  H   12.84918688434217     11.71812137678048     12.36115785402473
  C   10.56115004407187     13.25378708855952     12.50211046502665
  H   11.55198230680945     13.36037411392194     12.07029509476016
  C   12.61751406386837      8.68115536722249     13.86197216691570
  H   13.17503146448226      7.77597775395755     14.08733066738585
  O   8.08803755611296      9.52179616366927     13.20707475517993
