26
Coordinates from ORCA-job ATOFAS-OH_0_5_tpss_d4_lanl2dz_631gpol_Fe3.opt
  Fe  8.54675751701899     10.10026570981893     14.74715895864523
  Cl  6.42543108135406     10.74919424002436     15.40350008565234
  Cl  8.46303764324769      7.91429962375143     15.54456733397482
  Cl  9.47559570133716     10.97184948866239     16.60097921131308
  C   11.12632140720836     10.93137658520646     13.36058888921331
  N   10.61879055701061      9.90218228444732     14.07745744827475
  C   11.37720772708731      8.82756112493692     14.34592414842152
  H   10.89630863307792      8.05237846673912     14.93683995239322
  C   8.11842228480123     12.97919209029979     13.66642451786770
  H   7.17322172338370     12.81205049170531     14.17634432182317
  C   13.23324079698050      9.77093739376977     13.14213719043566
  H   14.25594837487070      9.72537636492571     12.77345198479388
  C   10.21873468490302     12.08160928887569     13.16488626031467
  C   8.39872418858111     14.15113146882798     12.95840196290698
  H   7.65366947736914     14.94076579977741     12.90666555947129
  C   9.64109751651185     14.27295348619537     12.32924719891118
  H   9.89344721729276     15.16847316171462     11.76507320103954
  N   9.00837960525195     11.97800181499267     13.75981219353285
  C   12.44200700323400     10.89021121786173     12.87469158583079
  H   12.84704892764105     11.72045473969208     12.30335118367756
  C   10.56252946872206     13.22862239679780     12.43336857447571
  H   11.53240802872783     13.30783962688876     11.95093111683486
  C   12.69560289869930      8.72170465737542     13.89304078921628
  H   13.27780419610414      7.83529506339106     14.13111610698727
  O   8.01444059193602      9.57351041686755     13.13572941598203
  H   7.47714274764730      8.75797299645413     13.27449080801006
