30
Coordinates from ORCA-job ATOFAS-CH3OH_0_6_tpss_d4_lanl2dz_631gpol_Fe3.opt
  Fe  8.67468752938109     10.20025167386535     15.00203494616146
  Cl  6.36510878481920     10.61811574895734     14.76717392044360
  Cl  8.57000022057745      7.98817545977978     15.63507154313190
  Cl  9.29308937177612     11.25499155461475     16.93812012430020
  C   11.24139529610377     11.00909002966214     13.53557185846812
  N   10.75368377704023     10.01325100665052     14.31699515081358
  C   11.52988341628879      8.95439174455273     14.61095495276840
  H   11.06946837344452      8.20623092489393     15.25146872535838
  C   8.27870627259523     13.10934189847459     13.88669733948830
  H   7.33033583206258     12.95549912909919     14.39497382801025
  C   13.33454258866748      9.82694787973805     13.28467508216611
  H   14.33884556994668      9.75683401119244     12.87153417912539
  C   10.34515548490856     12.16920588896159     13.34456291568051
  C   8.58851378414221     14.29654261720608     13.21739092424532
  H   7.86994125308897     15.11196372512393     13.20297613799574
  C   9.82761420912396     14.40084832581406     12.57872680041501
  H   10.10381221176210     15.30691049676148     12.04313208486865
  N   9.13099937589888     12.07133287370430     13.93629268315525
  C   12.53367222403753     10.93335220276132     12.99343347497559
  H   12.91358211695141     11.72699803914667     12.35655840868488
  C   10.71915289306492     13.32775292381700     12.64667593285456
  H   11.69394651605138     13.40073665249680     12.17297920067545
  C   12.83114650937138      8.82342516749169     14.11770576168234
  H   13.42474740919297      7.95237378561360     14.38287412129928
  O   8.39132834980273      9.63186021770297     12.78023697196111
  C   8.55373400123011      8.26341585151696     12.33475009512517
  H   8.29879685290560      8.19778229658261     11.26861334996503
  H   9.60884700970257      8.01786000828184     12.47881924268858
  H   7.93879188147987      7.58051154237896     12.93065461422598
  H   7.42534088458071      9.83319632315638     12.81842562926450
