47
Coordinates from ORCA-job CPYFEM-oxo_1_5_tpss_d4_lanl2dz_631gpol_Fe2.opt
  Fe  -3.06853357844912      4.24497165939968      5.56494061219798
  Cl  -1.61977786417360      5.81633731405164      6.45016164126248
  O   -4.10268952416181      3.12534588004678      4.93885978704713
  N   -1.38847740866453      3.13267280938778      4.80854072868414
  C   -0.19044378823872      3.09015539459312      5.43274517327209
  C   0.87501603743380      2.34095424264147      4.93089696716544
  C   0.69935956647881      1.62347387969561      3.74152994226513
  C   -0.54442169346328      1.67034057549187      3.09888729668427
  C   -1.56727059453086      2.42898705269928      3.66756650263654
  N   -4.73514587715278      5.37364453619833      6.31340201850421
  C   -4.72827422598438      6.72188990418137      6.41012566630393
  C   -5.83842737387782      7.43271420396659      6.86880946780427
  C   -6.98603635457136      6.72723512369349      7.25015590178961
  C   -6.98806551483578      5.33021080498784      7.14813286604404
  C   -5.84694234273007      4.68910894684579      6.66663670287805
  N   -3.14223397327201      5.35046876973091      3.72934880403885
  C   -2.09589992409003      6.06549729186393      3.25887318346393
  C   -2.16003777170340      6.75385243482965      2.04655800873276
  C   -3.34565306385656      6.71114842206571      1.30312131602619
  C   -4.42697951679897      5.96859797686998      1.79465794844448
  C   -4.28459408624365      5.29449905109903      3.00731992669649
  N   -2.97619829941547      3.13929212307495      7.39632907036169
  C   -2.82720787313177      3.72504523436226      8.60555035663723
  C   -2.79991039906672      2.98030165598991      9.78572349818021
  C   -2.91761196308879      1.58719116668026      9.71255710350617
  C   -3.07153438321066      0.98524263495899      8.45715547515115
  C   -3.10552820387665      1.79487316574047      7.32219894540812
  H   -0.10877536520566      3.68635353118880      6.33761518625840
  H   1.82220403949502      2.33028760471500      5.46433458133264
  H   1.51522022294430      1.03670408894853      3.32426095662512
  H   -0.72603557188535      1.12510166779967      2.17598232864352
  H   -2.56212688698396      2.48621486052410      3.23338120668384
  H   -3.80195515399994      7.21107638289631      6.12122429958520
  H   -5.79427623268975      8.51729137352819      6.92863408220780
  H   -7.86344335557322      7.25570427207159      7.61745204638286
  H   -7.85878094032835      4.74283581954766      7.42893557511338
  H   -5.79316529333567      3.61127613537747      6.53739101720069
  H   -1.21193558653598      6.08047407985243      3.89055186460690
  H   -1.29509111419739      7.31485047976114      1.70163741304420
  H   -3.42508954361979      7.24377879265472      0.35758683157999
  H   -5.36494063821700      5.90418380636340      1.24870668291928
  H   -5.07535041551780      4.67976454309371      3.42950060638814
  H   -2.71704219119956      4.80601247272680      8.59668422540117
  H   -2.68216905881345      3.48961801848151     10.73891274821840
  H   -2.89277885899895      0.98194733180389     10.61647526084798
  H   -3.17098802242068     -0.09247093537373      8.35392825458885
  H   -3.25046003824056      1.39314341889199      6.32281992118489
