46
Coordinates from ORCA-job CPYFEM_1_3_tpss_d4_lanl2dz_631gpol_Fe2.opt
  Fe  -2.90100281407265      4.41963753637399      5.65337841558835
  Cl  -1.38240368411907      6.07184618993197      6.57880557565059
  N   -1.47258395511075      3.28923669650929      4.88059916672651
  C   -0.29606010141630      3.14616389875129      5.54370187935981
  C   0.73275414581970      2.34264022109968      5.05262877920109
  C   0.55445246207986      1.66020156368658      3.84334465593825
  C   -0.65768408027027      1.81183315750168      3.15810022834217
  C   -1.64150647204853      2.63488583863523      3.70296690366081
  N   -4.54294142843911      5.31933177663957      6.29352432125329
  C   -4.60334352221993      6.67568592957916      6.31453769579319
  C   -5.75010871732862      7.35525846434868      6.72529881812772
  C   -6.87503567682564      6.62515655474042      7.12654483018143
  C   -6.80995447011203      5.22597252278245      7.10914175473656
  C   -5.63050160258717      4.61129506754418      6.69289669455691
  N   -3.14478161195411      5.33700648146388      3.91425529656850
  C   -2.10119326603873      6.00145954217012      3.35330304281465
  C   -2.20351890127283      6.61122975767248      2.10324292929268
  C   -3.40885832061171      6.52898860467637      1.39570927429037
  C   -4.48278793028490      5.83946021101979      1.97270482964638
  C   -4.31516851644815      5.26403097157341      3.23137236470912
  N   -2.89783569890343      3.23883043723451      7.24401995514971
  C   -2.81216664351227      3.78149028588777      8.48613481065561
  C   -2.86640924731850      2.99625747490899      9.63748092764981
  C   -3.02689318343490      1.61071295823615      9.51635854704340
  C   -3.12050928058367      1.05260233811400      8.23514010302410
  C   -3.04564845229780      1.89487609956653      7.12687785497759
  H   -0.20627669315461      3.72590315114229      6.45847001444101
  H   1.66017615518895      2.26476833289529      5.61434420336275
  H   1.34325243361263      1.02874288471935      3.44032889941869
  H   -0.84205113328002      1.30806713259228      2.21255990084689
  H   -2.59314559090045      2.79203237652025      3.20017231406939
  H   -3.68929552560125      7.18434132563551      6.02007208519501
  H   -5.74952267797777      8.44227561841778      6.73263214055425
  H   -7.78055061804648      7.13322098878104      7.45101292850859
  H   -7.65438724419125      4.61453849166676      7.41722185543661
  H   -5.53009437543561      3.52841778825216      6.67434245229538
  H   -1.20042442095384      6.04791729310313      3.95980527253277
  H   -1.34588229101910      7.14310497085263      1.69927199994367
  H   -3.51139349859009      6.99520071937568      0.41816223342561
  H   -5.43998224292756      5.75268130494679      1.46471287778541
  H   -5.12495928065359      4.73632643136164      3.72977705157489
  H   -2.66980515931815      4.85867601380756      8.51293505417748
  H   -2.78146036402214      3.47265963732232     10.61082945356138
  H   -3.07437857397254      0.97818330774366     10.40017681349254
  H   -3.24098332321874     -0.01800651297552      8.08979750060484
  H   -3.09254460622673      1.50765816319110      6.11170529383397
