47
Coordinates from ORCA-job CPYFEM-oxo_1_1_tpss_d4_lanl2dz_631gpol_Fe2.opt
  Fe  -3.07770727216766      4.23400264343060      5.55244270746929
  Cl  -1.61387978812904      5.82465513758742      6.44752037478190
  O   -4.11455945639799      3.11263003944334      4.92263780000505
  N   -1.51544934715104      3.20183483023422      4.85486735683788
  C   -0.35326764610621      3.08431099180083      5.53953848770461
  C   0.72049849207716      2.34556686055298      5.04143444536077
  C   0.59739151108518      1.71215372953962      3.79985397022496
  C   -0.60987897269511      1.83063766573723      3.10071059685731
  C   -1.64603801940504      2.57651896394805      3.65986972300477
  N   -4.62642241936383      5.28005122579768      6.25590555747706
  C   -4.65455736313354      6.63372226692564      6.25236758166495
  C   -5.75988780187209      7.34613112314676      6.71881989910461
  C   -6.86805109716968      6.64626648946857      7.20853711815866
  C   -6.83498719454669      5.24651885282495      7.20427837481812
  C   -5.70281599833072      4.59706587105122      6.71541536756867
  N   -3.14748218281863      5.26961387747532      3.84902094613000
  C   -2.06197281181883      5.89131436249422      3.33090597628282
  C   -2.12189237767655      6.58909878616147      2.12427364995170
  C   -3.33531346555704      6.65312179500799      1.43057640825000
  C   -4.45233755747680      6.00178546477053      1.96778723772323
  C   -4.32129183160881      5.31502634500520      3.17354764631281
  N   -2.99136288997821      3.20766683083741      7.26203214451673
  C   -2.93883472244680      3.80947643562916      8.47384611091029
  C   -2.89822185606578      3.07296531192567      9.65821286520469
  C   -2.90661551201692      1.67529852100152      9.59536022390262
  C   -2.96863682526645      1.05908632429378      8.33962546141804
  C   -3.01634679220975      1.85452679610618      7.19603609960404
  H   -0.30551135501341      3.61702326731420      6.48385037315425
  H   1.63522350943016      2.27865115008134      5.62475390889110
  H   1.42262232181721      1.13563546501878      3.38726034397803
  H   -0.75660823044345      1.35110759018455      2.13626242466258
  H   -2.61470410733394      2.68179803748400      3.18119475593164
  H   -3.75917567196538      7.12464917166161      5.88473017458888
  H   -5.73926786710472      8.43264905923717      6.69677498105024
  H   -7.73993511410473      7.17900236019492      7.58217587302599
  H   -7.67309401840084      4.65756679306103      7.56810185635127
  H   -5.62945635263461      3.51559569750610      6.65790085467206
  H   -1.15408935013130      5.82904296954843      3.92227022085241
  H   -1.22546293910600      7.07341662903058      1.74574614882453
  H   -3.40885305592032      7.19508225284314      0.49010254176741
  H   -5.41505208656503      6.01599126688741      1.46317928080388
  H   -5.14130092332119      4.76523395854272      3.62500278688598
  H   -2.90959864006955      4.89429941065847      8.46285612459944
  H   -2.85668797474061      3.59828251378682     10.60888188198156
  H   -2.86963281132586      1.07887477013631     10.50448320561163
  H   -2.98471976810391     -0.02312351893360      8.23846497550414
  H   -3.09527436671555      1.43637361355832      6.19738315561720
