39
Coordinates from ORCA-job BEBFUL-oxo_0_5_tpss_d4_lanl2dz_631gpol_Co3.opt
  Co  1.61400457946514     16.30221237016772     14.23009500055964
  Cl  -0.42209080419874     12.31812645142872      8.99829068449280
  Cl  2.46210571806807     13.29672221955134      8.09386527976332
  Cl  2.56422093047184     14.46615027903996     15.25300574440467
  O   0.95473431741289     17.68369975047415     13.65376702503594
  N   0.13621852491125     16.15027120556667     15.73520058341718
  N   0.31894530614716     15.05108234360677     13.31823054664745
  N   2.67919931410913     15.86015304200390     12.57324593572752
  N   3.40740553295297     17.28611291646913     14.69877068718950
  O   -1.76812884912695     14.01231681800200     13.57508089116044
  O   4.74352216612313     16.25403508781932     11.53202018648354
  C   0.11343508525450     16.69959752053046     16.95958289604290
  H   0.96629585649960     17.31779432672646     17.22416062910937
  C   -0.93816586158319     16.48697563696530     17.85565070678148
  H   -0.91203564864001     16.94981626906545     18.83907096766725
  C   -2.00650739426151     15.67292841331135     17.45987783932481
  H   -2.83922670169904     15.48554161206939     18.13469510918180
  C   -1.98374433089743     15.10177198952549     16.18576012257876
  H   -2.77580432824518     14.45713013358274     15.81512456134565
  C   -0.89475405748553     15.36147699344908     15.34625790433433
  C   -0.84224032573279     14.73266046727254     13.97937883871981
  C   0.71833238706897     14.60588282066703     12.10458084159842
  C   -0.02572516809550     13.75335955077661     11.25058213628821
  H   -1.00631671777366     13.41774567280165     11.56716601030842
  C   0.51004755878455     13.36349311497562     10.03580792766402
  C   1.80919363425552     13.80513445373952      9.62780918706827
  C   2.56505847198588     14.63555184619028     10.43667509752270
  H   3.55122580209030     14.97024815953344     10.13615265052566
  C   2.04625785554505     15.05948877230819     11.68612275900639
  C   3.94458177948883     16.38231655931498     12.47262708336152
  C   4.31754780435384     17.17234755286320     13.70032848721410
  C   5.58738156261881     17.75254942944269     13.79138959749559
  H   6.27269386449145     17.62113082736600     12.95874788573303
  C   5.92247722430124     18.46992426551038     14.94190139583345
  H   6.90312879049023     18.93115816098392     15.03924646722765
  C   4.97710225560358     18.58390634308786     15.96836327680583
  H   5.19491569556594     19.13074103930143     16.88244597273155
  C   3.72947979319976     17.97517940920327     15.80458732098891
  H   2.96522837647981     18.03056617530487     16.57413376265712
