40
Coordinates from ORCA-job BEBFUL-OH_0_6_tpss_d4_lanl2dz_631gpol_Co3.opt
  Co  1.61442573101598     16.40046370551358     14.22834165405696
  Cl  -0.32771751569113     12.16068777484642      9.08935578674767
  Cl  2.50135915966220     13.24369725417754      8.12295703423440
  Cl  2.41959856728704     14.55216343676518     15.55067852930656
  O   1.00490647064332     18.09728319368997     13.87805452792799
  N   -0.07705643573496     16.27477907256452     15.66889504922449
  N   0.32940212300358     15.07228502874320     13.31696377434564
  N   2.66975939478011     15.91712812907378     12.54753769728000
  N   3.55019232069538     17.23672314058766     14.65400284841593
  O   -1.65394337964213     13.83796383025406     13.58690275634136
  O   4.64932947370236     16.38388300194270     11.36733006952422
  C   -0.20045614410252     16.88432519651948     16.85953281289006
  H   0.55072293625498     17.63674831759672     17.09007487678213
  C   -1.22628531247195     16.57010954302713     17.75655339167313
  H   -1.28498055745783     17.08170791658107     18.71438367989730
  C   -2.16089649650256     15.59152218917892     17.39437393232580
  H   -2.96947834869725     15.32278677358212     18.07137994259289
  C   -2.03882311596477     14.96419798495479     16.15183481020861
  H   -2.72990014041430     14.19941487452465     15.80826340402731
  C   -0.97817276999134     15.33027309128176     15.31579711734609
  C   -0.81202083649444     14.65963196354403     13.98002852757077
  C   0.74502894479517     14.58913968858310     12.11648156678634
  C   0.03356230370290     13.67690988263200     11.29525220462409
  H   -0.92671870937194     13.30519817379487     11.63098690358710
  C   0.57012956273579     13.27503943324099     10.08467639569439
  C   1.84208899546588     13.76141992109829      9.65031497377395
  C   2.57035772545329     14.64348686786831     10.43126632148586
  H   3.53686949541211     15.01030769689186     10.10692705219054
  C   2.05039810600463     15.07803464429755     11.67595649435072
  C   3.92614305915238     16.46594621119253     12.37087150611828
  C   4.39263946047884     17.19529407783932     13.59923163968626
  C   5.67174035411889     17.75995908695095     13.64688561367993
  H   6.30487872769420     17.68924621988829     12.76661668614232
  C   6.08295883433573     18.38307299911375     14.82783375381759
  H   7.07167168839149     18.83237231715474     14.89876421958148
  C   5.20958612103631     18.41100052316416     15.92315722581488
  H   5.49718869601298     18.87500901426289     16.86362955604461
  C   3.94812500564607     17.82185878207673     15.79365003025789
  H   3.23740959089749     17.79677696125174     16.61603173753472
  H   0.04732691415789     18.22746207974762     14.03955389610883
