38
Coordinates from ORCA-job BEBFUL_0_5_tpss_d4_lanl2dz_631gpol_Co3.opt
  Co  2.00282313795358     15.47389352976991     14.56619028228508
  Cl  -0.42908879544328     12.36099614762844      8.91583173128362
  Cl  2.23633599114270     13.76961823436380      7.89477064244185
  Cl  2.58204746947451     13.91039743119130     16.11969293270236
  N   0.24758625472258     16.10085564405648     15.60244955368437
  N   0.53943069529451     14.61080148446093     13.49183397341627
  N   2.65961629800143     15.73550868525449     12.68395033807285
  N   3.50626178882214     16.94255335442406     14.87960355600396
  O   -1.63720740942894     13.73948789595598     13.69545201485894
  O   4.28424836153643     16.83312193913091     11.38630003741893
  C   0.16719757719378     16.91995043503951     16.66619694073351
  H   1.02517561728075     17.56556082068688     16.83841327503100
  C   -0.94977960789653     16.94850646672584     17.50703370426167
  H   -0.97129676781252     17.62851480500311     18.35519854266916
  C   -2.02114804754688     16.08913288709092     17.23478205074101
  H   -2.90080905148220     16.08303365833732     17.87540973513457
  C   -1.94529253632586     15.24244805685718     16.12495031152612
  H   -2.74411355693442     14.55920749711431     15.84924437773105
  C   -0.79573144195032     15.27529100637231     15.33203905120769
  C   -0.68765394544663     14.43058095052091     14.08996708962765
  C   0.83804511631409     14.31773710610816     12.19222897370918
  C   0.07469048393294     13.52541250209307     11.30629870540079
  H   -0.83426100913048     13.05281521708268     11.66020790643507
  C   0.51092392009987     13.35813481940577      9.99866079797867
  C   1.70559031252930     13.98365109091841      9.54375363017770
  C   2.46775683546081     14.78010799612386     10.39256534436431
  H   3.36417171626625     15.27533433496448     10.03822275220478
  C   2.05018656987828     14.96252422876269     11.72637714415946
  C   3.72111709138758     16.57875768169224     12.46269766950399
  C   4.18517978553848     17.23332367552501     13.74081920566193
  C   5.30074438319014     18.07635057647552     13.73749293908496
  H   5.79720051448504     18.27155664749085     12.79081146021026
  C   5.73619625220619     18.62084450123183     14.94883840717527
  H   6.60251800517749     19.27898507746056     14.97798908647694
  C   5.05325389521813     18.29340875280204     16.12787922097265
  H   5.37463855231146     18.67725871499980     17.09303599406974
  C   3.94405122422399     17.44692635044043     16.04937584935553
  H   3.39609431975544     17.13370979643632     16.93523477222542
