44
Coordinates from ORCA-job BEBFUL-CH3OH_0_1_tpss_d4_lanl2dz_631gpol_Co3.opt
  Co  1.88568542087398     16.09631558200021     14.20881056754240
  Cl  0.02737121561807     12.33035654550853      8.89692915693965
  Cl  2.95867318017173     13.34919156740275      8.10911499342009
  Cl  2.63077149541602     14.18934945089312     15.12776615777997
  O   1.31545763153352     17.89844511270016     13.39882173968243
  N   0.46732459033191     16.23228497319762     15.57461358411909
  N   0.58715865610376     15.13401280696705     13.25437945564386
  N   2.91126993678718     15.92503951024534     12.64322373860059
  N   3.51619172148857     16.96041922476878     14.92121596901735
  O   -1.43620517961530     13.98396912274478     13.54145748176411
  O   5.00058007698980     16.42978157159434     11.70711593853385
  C   0.39487994860040     16.97821958821021     16.69345358450289
  H   1.21033723348015     17.67305131246027     16.86469371931318
  C   -0.67727649372443     16.88612235811275     17.58528797796905
  H   -0.68342520279506     17.50245075425062     18.48088380675608
  C   -1.72053821399631     15.99565161417178     17.30294355755344
  H   -2.56107678382366     15.89357596651429     17.98653003436327
  C   -1.67307323193181     15.25902961098331     16.11695530145727
  H   -2.46060675157740     14.57737904480734     15.80577151636471
  C   -0.57319577978839     15.40790241721629     15.27065965746385
  C   -0.52177992068533     14.72858930822860     13.93387974684122
  C   1.03596758429311     14.63794757407407     12.02682658124689
  C   0.33070509767098     13.78130677768567     11.17010834553076
  H   -0.65559608851007     13.42871773459357     11.44792812392332
  C   0.92637134587402     13.38935717272892      9.96616480154075
  C   2.21459369458002     13.83538194042803      9.61992225935853
  C   2.93149990575678     14.68142478171731     10.47366149360746
  H   3.92696368650848     15.02484691556356     10.21725084072725
  C   2.33870669351965     15.08603417212086     11.67630404134592
  C   4.17692838765859     16.44052242891480     12.63646648324534
  C   4.48588976809936     17.05243099417612     13.97126576659997
  C   5.74439947976927     17.59216779298148     14.24209944915778
  H   6.46497391031722     17.63076685981070     13.42915272016835
  C   6.03011449742000     18.02452482095042     15.53932035091063
  H   7.00272005989602     18.44772342873867     15.78236031952849
  C   5.05284708883279     17.86948285617927     16.52979735566391
  H   5.24228728344225     18.14939445814024     17.56309289303667
  C   3.81354916582578     17.32604002300512     16.18158453770124
  H   3.05145465160281     17.14007640874174     16.92963894982672
  C   -0.08592423246428     18.14450614785092     13.09117342662074
  H   -0.15262951733412     19.06608719022446     12.50227802066497
  H   -0.51880928680762     17.29651446588088     12.55105973979732
  H   -0.58614114630676     18.27760902559293     14.05206953063765
  H   1.79987442089807     17.74481858691978     12.55246628352899
