39
Coordinates from ORCA-job BEBFUL-oxo_0_1_tpss_d4_lanl2dz_631gpol_Co3.opt
  Co  1.62057368257396     16.15421746466583     14.11804121627955
  Cl  -0.38798312764649     12.24469693598451      8.99901554301094
  Cl  2.37644417740687     13.44841551762238      7.98199767943852
  Cl  2.55528883864741     14.31578592467354     15.24668357965174
  O   0.96761311456515     17.62919201979390     13.51846068734021
  N   0.27323321016219     16.22548772521218     15.57538728577977
  N   0.40404544346514     14.98433249207408     13.33434575764223
  N   2.62594550183108     15.85833295940748     12.57128736375202
  N   3.26210790288314     17.09511208584638     14.72269192823362
  O   -1.49567286267085     13.69797887282251     13.78403340373170
  O   4.55399896500254     16.54302531864634     11.44143826651585
  C   0.19960242447772     17.05540540608884     16.62764619007444
  H   0.94646950201114     17.84042195034075     16.67663434893509
  C   -0.80461256335408     16.93278757103246     17.59269696870307
  H   -0.82253100586252     17.61900933127456     18.43556146854919
  C   -1.77269283603904     15.93198948034203     17.44559407268849
  H   -2.55924532125268     15.81050017934022     18.18727314421150
  C   -1.72988073666741     15.11303568937279     16.31447421529262
  H   -2.47190331546462     14.34611516590855     16.10843108116264
  C   -0.69811103450268     15.29633624854204     15.39327489748935
  C   -0.65204634257963     14.54383475932600     14.10301204671128
  C   0.75293067467357     14.54256056385422     12.08089172630802
  C   0.02130801227565     13.65443353828995     11.26870663440823
  H   -0.91691351823634     13.24377585813299     11.62094398984916
  C   0.52797004248960     13.32655590720430     10.01583066797340
  C   1.76489373230455     13.86347326075941      9.56173796381787
  C   2.50984554204765     14.72540028031784     10.36015603488710
  H   3.45620888480561     15.13051659041431     10.02302856645749
  C   2.00956845440125     15.06914263630090     11.63093556479039
  C   3.82017505570208     16.52753776425797     12.43835963075234
  C   4.16568392549803     17.21523997034486     13.71878580407858
  C   5.39323709584322     17.85560973284313     13.89838921035586
  H   6.07109261213258     17.91099501969808     13.05060585918481
  C   5.70379968601987     18.37015431987119     15.15889992392663
  H   6.65043335497108     18.87752345992142     15.33220246467205
  C   4.78882124742908     18.19261012465799     16.20461121916245
  H   5.00374643681022     18.54275821571295     17.21100239687490
  C   3.58064881616611     17.53916869692761     15.94910603127892
  H   2.86590632767974     17.33383096217229     16.73762516602710
