39
Coordinates from ORCA-job BEBFUL-oxo_0_3_tpss_d4_lanl2dz_631gpol_Co3.opt
  Co  1.61282392859951     16.15782273847483     14.11595528271495
  Cl  -0.39867107105999     12.25173704450344      8.99003499897344
  Cl  2.37956611067340     13.44330244725708      7.97888980416613
  Cl  2.55765424166326     14.34464173003848     15.25764090046189
  O   0.98131502400494     17.60801009851769     13.50155437842226
  N   0.26345922846059     16.22831100445902     15.57832286609759
  N   0.40153805905128     14.98023695494254     13.33629831606517
  N   2.63766740703064     15.84453525665459     12.57628811688760
  N   3.26780780361949     17.10213199808464     14.72791252429615
  O   -1.51834294070419     13.72397676543329     13.76724243728840
  O   4.56151777923076     16.52913808630333     11.44929331246666
  C   0.19983142913901     17.04372900423995     16.64316592010442
  H   0.95391113321749     17.82097458301537     16.70441462419947
  C   -0.80313971526958     16.91444422443334     17.60814649381203
  H   -0.81544478572021     17.58924646426824     18.46019953622727
  C   -1.77708312515653     15.92091210129013     17.44924273644287
  H   -2.56257488120274     15.79412516632202     18.19115992229418
  C   -1.73979808692764     15.11481813824454     16.30893577394518
  H   -2.48392286867750     14.35181868510339     16.09579802009819
  C   -0.71009185053428     15.30424992202269     15.38666720507593
  C   -0.66321052313771     14.55725093564538     14.09344407930221
  C   0.75637802645492     14.53722977239449     12.07723409819316
  C   0.02053796929776     13.65737341143682     11.26350401054603
  H   -0.92101635620761     13.25233153496608     11.61319509139464
  C   0.52654333763403     13.32729106123170     10.00826525296957
  C   1.76283766911014     13.85646197488481      9.55889901365339
  C   2.51140440762671     14.71460240125393     10.36265877547837
  H   3.46071638389706     15.11482588763064     10.02811200173275
  C   2.01161316031367     15.05649129518798     11.63139925848871
  C   3.82363313944666     16.51898704869129     12.44462904585518
  C   4.16781437737849     17.21572765308432     13.72173326579467
  C   5.39549542476908     17.85777762597759     13.89543228164101
  H   6.07240510174145     17.90566024873960     13.04634163475665
  C   5.70720715191910     18.38255025546878     15.15130362856259
  H   6.65376342065469     18.89192883295400     15.31934761632288
  C   4.79409723558023     18.21269349968449     16.20010678525486
  H   5.00965022461184     18.57204013599470     17.20310282633052
  C   3.58706965045767     17.55490327362553     15.95090323787976
  H   2.87503737901403     17.35301073753822     16.74302492580233
