159
Coordinates from ORCA-job AVEWUU-OH_1_4_tpss_d4_lanl2dz_631gpol_Fe2.opt
  C   8.58521065283752     -8.23166438979973     15.14388329032288
  H   8.42307488551688     -8.37775870933931     14.08269548478059
  C   9.21983374494387     -9.22253439839783     15.93625749771621
  C   9.38909724503055     -8.94747558333844     17.29568700497769
  H   9.89595842977638     -9.66162268460375     17.94123267797366
  C   8.93499354716656     -7.72967917350076     17.84048098572031
  C   8.31610032448745     -6.79898506720585     16.96494488527262
  C   9.08772658089930     -7.37606489500694     19.22525090439613
  H   9.55137657767649     -8.09869267110496     19.89383041301839
  C   8.66807385818653     -6.15968116539390     19.69625678032906
  H   8.79802392046559     -5.89863676081445     20.74522286388613
  C   8.04814121960949     -5.20148719092271     18.82249762147492
  C   7.85570333849851     -5.53665994023719     17.45963200682458
  C   7.57771013990021     -3.93915157269525     19.24078816414772
  H   7.68217133846913     -3.64517940576096     20.28434245896332
  C   6.94705284567103     -3.07192300205383     18.34901256961920
  C   6.79112795852440     -3.50483311912029     16.99423885692248
  C   6.46026756322425     -1.75754377101432     18.82534316450738
  C   5.15603988963962     -1.30731293011622     18.54480574543815
  H   4.48998624572008     -1.91762822219506     17.93890551457665
  C   4.70202254372010     -0.09412143221107     19.07095129283270
  H   3.68597009928665      0.23644489683065     18.86193937212751
  C   5.54679098428193      0.68964434807002     19.86774183433488
  H   5.19292673351304      1.63750420597545     20.26910509669332
  C   6.85106608567467      0.25649746884884     20.13918807520091
  H   7.51940757050393      0.87235106815825     20.73712951061200
  C   7.30315028267510     -0.96194535247988     19.62674391673592
  H   8.32585462005008     -1.28659769619690     19.81219932410081
  C   9.68016167613132    -10.47857518509897     15.30952143768714
  C   9.73061351586406    -11.67449245731257     16.05523267608310
  H   9.40138314097576    -11.67493299731889     17.09206606496167
  C   10.15733127404952    -12.86484150602556     15.46170738238892
  H   10.18176791403990    -13.78194607256996     16.04779661961423
  C   10.54189884495979    -12.88079769811852     14.11343105374308
  H   10.87085786562189    -13.80932865503228     13.65056387973756
  C   10.50427106346399    -11.69619486276037     13.36612762985328
  H   10.81205815655122    -11.69624603933831     12.32222567003432
  C   10.07964528588540    -10.50325431363428     13.95727345580722
  H   10.09310501230303     -9.58807719258212     13.37276576093697
  C   6.13661153877022     -2.67384617462746     15.94593873182217
  C   4.87207698115251     -3.09209510409408     15.45103674294804
  H   4.39940060280021     -3.97069611094827     15.88354509733873
  C   4.23605409088972     -2.38266205592020     14.45511167192406
  H   3.25709789772824     -2.69344886141161     14.09298149207980
  C   4.87208721358395     -1.26210273232365     13.85619771744559
  C   6.15474131222268     -0.83253756023174     14.34941877490777
  C   6.75741945930846     -1.52211485225364     15.45520055896127
  C   4.27900188138645     -0.57161152848530     12.76418863981510
  H   3.30815980308989     -0.90634826539588     12.40053042542496
  C   4.92645101994005      0.49481790041789     12.16682711257463
  H   4.46133557690639      1.02115622111503     11.33480624535934
  C   6.20033396886921      0.90623166614627     12.63730261991632
  H   6.71050377887992      1.73901116294110     12.15735250679842
  C   6.80462766124866      0.25360272125436     13.69617589203569
  H   7.78912238630322      0.56236417508935     14.03693497040837
  C   8.02975070841620     -1.05308677116475     16.06754653928300
  C   9.12654271753505     -1.90920667637004     16.11391433691940
  H   9.06627898268900     -2.89853785675280     15.66198097072632
  C   10.33910395826815     -1.51635021715066     16.73004195564506
  H   11.18092624756306     -2.20718264282827     16.73621089742196
  C   10.45544974475632     -0.26452382045581     17.30272475063829
  H   11.38851453798193      0.04871190564829     17.77072171290323
  C   9.35871300821466      0.64211005215461     17.29095929704122
  C   8.11754684117486      0.24901640451020     16.67516106976667
  C   9.46053390068677      1.92715661331072     17.89377479674755
  H   10.40766730642795      2.21458453231334     18.34993418020256
  C   8.38440898495793      2.79487554651343     17.90209840986443
  H   8.47551064120664      3.77753175029997     18.36184217805189
  C   7.15476239916891      2.39895088303054     17.31885521872537
  H   6.30199860380868      3.07517209767162     17.34855692790856
  C   7.02240720780391      1.15629243456395     16.72632073482896
  H   6.06434779453507      0.85849949037920     16.31037953446019
  C   8.17108003675504     -3.06920098474480     12.85378652372231
  H   9.07791552902634     -3.04152503470981     13.44714426827314
  C   7.99477124343682     -2.24346753997364     11.71736690475313
  C   6.80002934006321     -2.37509469602320     11.00538500885551
  H   6.63608642304079     -1.78990949531581     10.10314466723957
  C   5.82142660803850     -3.30738255008406     11.40669027835541
  C   6.09698858305954     -4.09488871075245     12.55021775980782
  C   5.19123212354274     -5.09833122685751     12.99564510553638
  C   3.98124507279591     -5.29373141218685     12.29127056703638
  C   3.70008516865543     -4.48060980946553     11.14089542656776
  H   2.76741708014593     -4.64942547627530     10.60578535916719
  C   4.58535044414163     -3.52708237846673     10.71176362545359
  H   4.36918190543661     -2.92644841901903      9.83053777542748
  C   3.10546836977529     -6.27647006577651     12.78861124876733
  H   2.14847376230791     -6.44614762074669     12.29750352254277
  C   3.42660504062451     -7.01247760028644     13.92608708918690
  C   4.68555561546778     -6.76972649749947     14.56314529029932
  C   2.45451629577489     -8.01679848102323     14.42045327916016
  C   2.03348354916092     -8.05261380432494     15.76303400564196
  H   2.45615155470828     -7.35660025128043     16.48411874089368
  C   1.04912374150840     -8.95974355417735     16.16743130487677
  H   0.71956219646528     -8.96856623787644     17.20512054979748
  C   0.48474309901671     -9.84804513144388     15.24264104396150
  H   -0.27511830621190    -10.55860887988941     15.56278855915879
  C   0.90767544210252     -9.82789563395648     13.90761286410815
  H   0.49244639501064    -10.53270843533553     13.19053487623055
  C   1.88252520504301     -8.91515456006867     13.49762780967478
  H   2.23813802977000     -8.91958189876390     12.46850420138022
  C   5.08351691700695     -7.52199939681241     15.78359003459569
  C   5.08371356211034     -6.82456038881685     17.02122748530942
  H   4.78405824093630     -5.77988696985149     17.03376542686285
  C   5.41642251182428     -7.46436133223577     18.19597005328905
  H   5.38212653465144     -6.93277582183645     19.14571843643335
  C   5.85675697980130     -8.81439835127110     18.17125067109194
  C   5.85537575044237     -9.53174777094625     16.92399755799586
  C   5.37501973670444     -8.89055793348018     15.73024416661284
  C   6.32068781148018     -9.46317448298005     19.34940093415208
  H   6.30832041803450     -8.91014533995990     20.28791586719520
  C   6.79098786404835    -10.76228404547393     19.30250591060502
  H   7.14081260222389    -11.25167702893936     20.21008312339425
  C   6.81864874220275    -11.46213555591593     18.06804428965182
  H   7.19708554945854    -12.48235132835006     18.03485558473127
  C   6.36707675623505    -10.86122983334339     16.90714450977635
  H   6.40678760950168    -11.39836544578768     15.96370989921293
  C   5.18405730916703     -9.64640273482273     14.46576091703345
  C   5.75444376345903     -9.17337104058955     13.28754685223740
  H   6.38124424205090     -8.28643778263041     13.31073437030262
  C   5.54452153159153     -9.81997070347944     12.04662147000334
  H   6.00501546206844     -9.40749234652402     11.15350499461804
  C   4.76792478997425    -10.96036132945312     11.98946729300113
  H   4.60930659847595    -11.47647688592870     11.04263930547208
  C   4.14934891474086    -11.48053089807236     13.16134584510179
  C   4.33295401190844    -10.81006002442218     14.42272712475080
  C   3.62075359688552    -11.30193256370314     15.55262383607265
  H   3.68974438834288    -10.77327124802884     16.49829020526130
  C   2.81870312438326    -12.42523205929802     15.45837792274857
  H   2.28262543712366    -12.77875567250049     16.33772544347297
  C   2.67365897979685    -13.10861429761176     14.22594944985310
  H   2.04377960785158    -13.99465636125211     14.16631994730664
  C   3.31995813684273    -12.63490585113618     13.09921006352033
  H   3.19949146750516    -13.13663167943034     12.13920855728584
  C   9.07515041396665     -1.32561079268083     11.30638549659750
  C   10.42285222051474     -1.64924649594361     11.56748370907381
  H   10.67133696990890     -2.59994769224883     12.03571785540717
  C   11.44799596808697     -0.78400622345032     11.17504961702745
  H   12.48406788648706     -1.05286575349236     11.37273239830977
  C   11.14623891555921      0.41460383588485     10.51489361814967
  H   11.94583862865504      1.08729766514577     10.21012971584974
  C   9.81049732081571      0.73976789334109     10.23985243769624
  H   9.56919725388346      1.66798318467847      9.72459493346057
  C   8.78398490175828     -0.12344885326113     10.63066065924926
  H   7.74786024951417      0.14582442520006     10.43596564034056
  C   9.13236122682076     -7.87462028765186     10.94260930855298
  F   8.61045021587209     -9.07217170903999     11.32396796992100
  F   10.29912975417029     -7.70554012316121     11.61642056984764
  F   9.39533124883394     -7.92093344001634      9.62651550238593
  Fe  7.56924878130168     -5.45279792501816     14.50554604841722
  N   8.15131305285869     -7.06546268471136     15.63576260245157
  N   7.22769887121898     -4.70639887623530     16.58626707822257
  N   7.25634984606608     -3.95144244620526     13.25155131173903
  N   5.54200820147748     -5.83364430461779     14.09977539022685
  O   9.27217467539501     -4.85129942266282     14.64348506492034
  O   7.87665728805184     -6.71232354126593     12.85840015296301
  O   6.68725380919939     -6.83751144100486     10.68423335115230
  O   8.64471438710583     -5.26541036465436     10.95721074135901
  S   7.94991897679915     -6.49397454536432     11.34690586317818
  H   9.83812870411354     -5.53766939188123     15.05779610341983
