163
Coordinates from ORCA-job AVEWUU-CH3OH_1_3_tpss_d4_lanl2dz_631gpol_Fe2.opt
  C   8.38224759229727     -8.35375834957087     15.14956059138731
  H   8.16994608514144     -8.53852724078669     14.10404474101777
  C   9.03751593977126     -9.32736121391807     15.94555840013232
  C   9.26044458894949     -9.02600060611594     17.29308453704168
  H   9.77451830559259     -9.73465141846141     17.93853286123067
  C   8.84632678613845     -7.78666605456536     17.81839883254644
  C   8.22849255829493     -6.86628515385869     16.93330137984732
  C   9.02606556302013     -7.39400918565471     19.18885597614613
  H   9.49196346107442     -8.10030999918402     19.87327268857197
  C   8.61540808070607     -6.16293166724577     19.63079439738982
  H   8.75070319970612     -5.87662223080700     20.67244660026357
  C   7.99613812564023     -5.22042271381431     18.73883125146189
  C   7.81125727334708     -5.58225315094260     17.38146001362732
  C   7.51687500589283     -3.95705477046393     19.13207361085790
  H   7.61161736587658     -3.63989529518594     20.16955619023038
  C   6.86910962329571     -3.12445015520814     18.21935199378485
  C   6.73425316005382     -3.56699463921553     16.86598553281803
  C   6.34893343006172     -1.81869182776822     18.69160546626928
  C   5.02394436975377     -1.41119529003063     18.44681002136714
  H   4.36099325478465     -2.04226822173441     17.85957754061833
  C   4.54676302496640     -0.21115519580766     18.98307544875100
  H   3.51539740277941      0.08621552394794     18.80093886458045
  C   5.38719931220848      0.60141249065657     19.75517386186545
  H   5.01437844526590      1.53882174509239     20.16386171000749
  C   6.71122357626300      0.21045649850715     19.99184642438699
  H   7.37614005916290      0.84868200564231     20.56986137220108
  C   7.18703218730755     -0.99436396712301     19.46875525898097
  H   8.22401679152945     -1.28652309428323     19.62785127831211
  C   9.47784390368508    -10.59939637791157     15.33503223894003
  C   9.56518567368463    -11.77552477809560     16.10807722658146
  H   9.27080274864255    -11.75265959735062     17.15481580388803
  C   9.98329113974990    -12.97714368228215     15.53164736227986
  H   10.03567424939941    -13.87824971731728     16.14033057691507
  C   10.32386236413225    -13.02549756088934     14.17233021596628
  H   10.64623737610766    -13.96289816297726     13.72290759076053
  C   10.25158944067446    -11.86065356898576     13.39734541731279
  H   10.52646707062132    -11.88459146708317     12.34448244007291
  C   9.83516355432869    -10.65671346755142     13.97228217760213
  H   9.82254187621544     -9.75645836613024     13.36541380195778
  C   6.02948427974256     -2.73898853435248     15.85187512767961
  C   4.75074482246284     -3.17602757397560     15.41394922038520
  H   4.32744365500404     -4.07998086615728     15.84317529429115
  C   4.04429350475584     -2.45914270512502     14.47284020431827
  H   3.05695159995501     -2.78934117670719     14.15353160451245
  C   4.62364708492023     -1.31448427506861     13.86335816137218
  C   5.91454045634649     -0.85852283305157     14.30715553247912
  C   6.58425119412646     -1.54820368103443     15.37489753943613
  C   3.96702422035001     -0.62894927362566     12.80452929343887
  H   2.99064031435690     -0.98607049126713     12.47926918025567
  C   4.56314825196975      0.45574125403218     12.18836380230652
  H   4.05260143427197      0.97524769768137     11.37910296435620
  C   5.84590524439773      0.89264378856705     12.60849957826584
  H   6.31605159471627      1.74005619588713     12.11272701215734
  C   6.50866824543912      0.24879076030992     13.63777868618248
  H   7.50048069829087      0.57825188973858     13.93470671926839
  C   7.85094516629553     -1.03068963550200     15.95739615878761
  C   8.97868143992981     -1.84488912981539     15.99594221168802
  H   8.93664264032402     -2.84057370979132     15.56325340975489
  C   10.19387025640078     -1.40438352798444     16.57132741250030
  H   11.05959709843786     -2.06534904445406     16.56410355612703
  C   10.28246783228670     -0.13923490242310     17.11844845355174
  H   11.21657145410961      0.21530268149461     17.55350019385058
  C   9.15282786083719      0.72606260436801     17.12539275599714
  C   7.90948112057519      0.28083035387129     16.55040273180301
  C   9.22574170252521      2.02095478512298     17.71103163549074
  H   10.17501011786849      2.34802259914532     18.13484266076173
  C   8.11858499732640      2.84802514349527     17.74481604268282
  H   8.18695126447985      3.83837876546800     18.19176739305722
  C   6.88669236783021      2.39882287698459     17.20717509048670
  H   6.00927261013966      3.04113560135706     17.26071608561756
  C   6.78258539094697      1.14593980824288     16.63092330143599
  H   5.82325230670738      0.80655447924445     16.25270780522709
  C   7.99303751165663     -3.21429045404926     12.95858318727374
  H   8.89171682743368     -3.17984798170230     13.56139447147684
  C   7.83863464582143     -2.35436850944230     11.84708451373938
  C   6.65634415444625     -2.45578080620037     11.11195695035935
  H   6.50532688810991     -1.84279133766961     10.22619509466756
  C   5.66834054668394     -3.38712187555266     11.48557869376035
  C   5.92151225913571     -4.20953051763394     12.61200881390712
  C   4.97322798404035     -5.19369662683060     13.02346929578377
  C   3.76430360617305     -5.34952149414774     12.30492985861664
  C   3.51673744815734     -4.50588697145595     11.16842980431090
  H   2.58667789278765     -4.63551056625803     10.61748966050403
  C   4.43127846354255     -3.56412992705101     10.77625880491618
  H   4.23897062802703     -2.93330542143650      9.91051746687472
  C   2.86422885133951     -6.32302650989555     12.78157574202040
  H   1.90890890989102     -6.46716910826950     12.27850729319271
  C   3.16021366891479     -7.08436448823567     13.91260427399674
  C   4.41271849928463     -6.85978711141505     14.56213085694247
  C   2.17985930185451     -8.08603423913251     14.39177689522964
  C   1.78271959201784     -8.14666255583606     15.74107513052100
  H   2.22159496876058     -7.46450883838089     16.46625171209863
  C   0.80403426347408     -9.05910345772262     16.14709020931113
  H   0.49347606834274     -9.08701765494946     17.19036194159307
  C   0.22180781366917     -9.92960353668295     15.21639136982894
  H   -0.53358898198185    -10.64485197094370     15.53693648231624
  C   0.62110155002378     -9.88554672810585     13.87453271820466
  H   0.19101071680966    -10.57631924635628     13.15241440542280
  C   1.59002805118231     -8.96671104300404     13.46356008782435
  H   1.92694955029624     -8.95281125069338     12.42827208997155
  C   4.84390504021782     -7.62002404020641     15.76858117998442
  C   4.93703054906815     -6.91718061330649     16.99981653958125
  H   4.65115367207017     -5.86823420287997     17.02821906656296
  C   5.34606041338793     -7.55530284093228     18.15109586226561
  H   5.38514591752897     -7.01942293817728     19.09857491845906
  C   5.75769299105167     -8.91441410308252     18.10652596863250
  C   5.68420097481653     -9.63138069958626     16.86083486250045
  C   5.15423213575236     -8.98137674199396     15.69299905490773
  C   6.26314983825172     -9.57175536037326     19.26233057858978
  H   6.30468236951876     -9.01801937210952     20.19981357935119
  C   6.69908492250657    -10.88252081376901     19.19753493638742
  H   7.07562729098579    -11.38010139491687     20.08994294542821
  C   6.65602718858266    -11.58200460801659     17.96401344557560
  H   7.00821734054544    -12.61084814640358     17.91444291700466
  C   6.17090832571187    -10.96951506623348     16.82246108588197
  H   6.15742532585194    -11.50792723782078     15.87906372700152
  C   4.94750478478213     -9.71476645973592     14.41564443286225
  C   5.52418571165152     -9.22833208828887     13.24594857073933
  H   6.15467110693340     -8.34429968382212     13.28643201884173
  C   5.30502648471895     -9.85047560480107     11.99431975618654
  H   5.77002999336054     -9.42974272400775     11.10724802496959
  C   4.51359352670074    -10.97984576783613     11.91722433999106
  H   4.34659351849597    -11.47571762452888     10.96107445783573
  C   3.89247440079740    -11.51466145806010     13.08076578853416
  C   4.08739824369561    -10.86831376843092     14.35290724866416
  C   3.38305476636867    -11.37653244474257     15.48054014340800
  H   3.46775781803580    -10.86583741070835     16.43512684659434
  C   2.57244514070334    -12.49190547852811     15.37176732532416
  H   2.04175811100504    -12.85961451420607     16.24856654541516
  C   2.41183686955357    -13.14980902221879     14.12693108590064
  H   1.77453121641999    -14.02974217550599     14.05597081178186
  C   3.05315182157848    -12.66119922460271     13.00390209856017
  H   2.92209011506554    -13.14549015279091     12.03632135159174
  C   8.92506789219401     -1.41893594748080     11.49036258245380
  C   10.26984180270513     -1.73662743892220     11.77059610483036
  H   10.51737906709256     -2.69939570847515     12.21345221918605
  C   11.29655851048009     -0.84994193067145     11.43424056717314
  H   12.33032808673420     -1.11635324286608     11.64778791947634
  C   11.00007883382821      0.36756330196416     10.80745099767880
  H   11.80022809135644      1.05718141360273     10.54491372051243
  C   9.66802164683513      0.68854880790315     10.51176103965003
  H   9.42925761328664      1.63141136291722     10.02243303870199
  C   8.64082299820275     -0.19632479283981     10.84937341589879
  H   7.60711754935705      0.07081883936366     10.64110584859985
  C   8.95865184405948     -7.97004929777643     10.97910161641387
  F   8.36038901003760     -9.11672725198748     11.39597205401887
  F   10.18137713177974     -7.90768318156055     11.57230610358551
  F   9.12965977073094     -8.03286305864633      9.64943601241295
  Fe  7.40982292036520     -5.61652364207822     14.55600872885068
  N   7.99905061119178     -7.15459969026466     15.61441842378273
  N   7.21117265775363     -4.76552180980440     16.45532442189933
  N   7.07989580157387     -4.11660537861884     13.33182387316014
  N   5.28515852686163     -5.93644687369026     14.12099310177126
  O   9.63299930710573     -4.95442283867229     14.78996172326550
  O   7.96599357303032     -6.69529006069104     12.96494775910144
  O   6.60967708619588     -6.73073490063656     10.86163068074525
  O   8.71415135041052     -5.32825621325824     11.00532635781009
  S   7.93010572769533     -6.48724058746951     11.44526048251034
  C   10.60623075232566     -5.53202882329669     13.87365206426017
  H   10.29775059384269     -5.22319892342682     12.87350069492656
  H   11.60511456418567     -5.14318776998281     14.10829095491700
  H   10.59096885983980     -6.62543803602370     13.93209984283333
  H   9.86863201908053     -5.23336231513275     15.69850979209047
