159
Coordinates from ORCA-job AVEWUU-OH_1_6_tpss_d4_lanl2dz_631gpol_Fe2.opt
  C   8.48728070219418     -8.33107639897091     15.27495316019232
  H   8.25091585617897     -8.50930655734040     14.23349008536589
  C   9.13213771336388     -9.32464291048932     16.06116602704420
  C   9.42009608747353     -8.98597058615368     17.38655810851064
  H   9.95182853049328     -9.68100069557929     18.03211445541366
  C   9.03574903665049     -7.73569223499710     17.91195847112622
  C   8.37240007516685     -6.83068797151155     17.04451881291552
  C   9.27682971266368     -7.34187863432626     19.27285290400640
  H   9.78245612198308     -8.04345224101137     19.93385485141098
  C   8.87895976770551     -6.11433561702502     19.73383697298215
  H   9.06509940195140     -5.82322559967477     20.76618561942299
  C   8.21197337398245     -5.18052606829121     18.86822999745407
  C   7.95776449887401     -5.54711624490063     17.52365009898270
  C   7.75852278775477     -3.91082696094987     19.28272470992971
  H   7.89814952054967     -3.60374196071679     20.31838670057455
  C   7.10036037585704     -3.05139498615329     18.40338875671064
  C   6.91240741160029     -3.49281986734024     17.05745534678465
  C   6.60853379657769     -1.74265851411805     18.88913449852005
  C   5.29646964045922     -1.30724648033304     18.62219353928873
  H   4.63407691165133     -1.92152774894325     18.01597053295266
  C   4.83064727387058     -0.10457742418502     19.16195524799496
  H   3.80900041293800      0.21479711464145     18.96303353802888
  C   5.67095565824130      0.68259287716488     19.95998850042400
  H   5.30790142697219      1.62211462658505     20.37255629122122
  C   6.98274058926844      0.26410346944431     20.21793730361863
  H   7.64737620964325      0.88337273043025     20.81643422870573
  C   7.44728063413283     -0.94316713473313     19.69060279182667
  H   8.47592131406473     -1.25498059818609     19.86463620453057
  C   9.44915305508597    -10.65008028363678     15.48471263066207
  C   9.68906058135591    -11.75790670188355     16.32612149694284
  H   9.63419152751793    -11.64183720326571     17.40610060879730
  C   9.95776621509923    -13.02037439099744     15.79359893862096
  H   10.13588032237215    -13.86019547744916     16.46311347369586
  C   9.98796643749506    -13.20819027910226     14.40458053999788
  H   10.19261873955705    -14.19309212412765     13.98908328487401
  C   9.75438718054325    -12.11804494365358     13.55743101871542
  H   9.78406403073522    -12.24732692048119     12.47709532865400
  C   9.49064583885702    -10.85277834552925     14.08922765485455
  H   9.34768126087003    -10.02358243285195     13.40557335675788
  C   6.26316132113628     -2.66426874425424     16.00399513234870
  C   5.01142103907654     -3.10270465342147     15.48993291870616
  H   4.55087996727659     -3.99262167753191     15.90962868130898
  C   4.37161809112042     -2.39650176798876     14.49504668563715
  H   3.40181023215361     -2.72305235926534     14.12178436011747
  C   4.98939521433797     -1.25651842812731     13.91427087034938
  C   6.25828084308598     -0.80608133179924     14.42526751526952
  C   6.86620376977273     -1.49383442481702     15.52974549412665
  C   4.39413710143106     -0.56736419227780     12.82303145199842
  H   3.43354161231893     -0.91717807232711     12.44635096540003
  C   5.02717746262177      0.51666282761185     12.24187412434727
  H   4.56014676950845      1.04102781667551     11.40958640229733
  C   6.28966867565213      0.94620043926896     12.72586661581588
  H   6.79355973867070      1.78551206849507     12.25147352463516
  C   6.89521018976235      0.29600408661252     13.78494823431741
  H   7.87230145164582      0.61738768864635     14.13500191201335
  C   8.12973669702034     -1.00633829750849     16.14532419985202
  C   9.24221018219370     -1.84278495033051     16.17515436220267
  H   9.20129105159434     -2.82440854452221     15.70236576288822
  C   10.45012202151380     -1.43436430727499     16.79065062439337
  H   11.30288081566981     -2.11134784005423     16.78608243554174
  C   10.54673416015023     -0.18566915998474     17.37390398375905
  H   11.47623435812622      0.14014241517369     17.84056504157043
  C   9.43529992838687      0.70344250169133     17.37214193945819
  C   8.19753967627040      0.29360626572306     16.76069569431524
  C   9.51974427941142      1.98735999053175     17.97969216768154
  H   10.46439836547131      2.28776152225288     18.43266178251542
  C   8.43045359250003      2.83872613517511     17.99556460244967
  H   8.50864062591247      3.82118626134975     18.45814124637410
  C   7.20470250975830      2.42624094176231     17.41600958493531
  H   6.34193317675371      3.08942195274860     17.45114732179803
  C   7.08878130746362      1.18330343877095     16.82029548465643
  H   6.13411012517848      0.87264905980735     16.40583109413568
  C   7.90390944178237     -2.93104400408006     12.74085039085418
  H   8.76832496209939     -2.77016345573688     13.37650457314566
  C   7.72752056524325     -2.18847030598512     11.54734124053272
  C   6.56557720138065     -2.43355740501577     10.81576962627738
  H   6.38805484238996     -1.90855446101621      9.87900468865271
  C   5.63325497163587     -3.39998766257515     11.24720991937811
  C   5.93109512534082     -4.12644306156290     12.42930261473925
  C   5.05230419415393     -5.15846767790075     12.89053259651303
  C   3.86570747369311     -5.42583664818891     12.16021748071797
  C   3.57199726799706     -4.67097421349636     10.97495151994243
  H   2.65622062202560     -4.89623466974444     10.43100889872897
  C   4.42645401837283     -3.69715834869235     10.53134357864206
  H   4.20684144363558     -3.13669346523494      9.62437489130331
  C   3.00695395440529     -6.41954450932100     12.66953661473038
  H   2.06579089109329     -6.62727411139839     12.16209644207091
  C   3.32264186386338     -7.11398183542492     13.83297397349607
  C   4.56117185943916     -6.80269008006257     14.48149054426443
  C   2.37007228855184     -8.12645960336637     14.34511435167192
  C   1.96265161539507     -8.14946685917764     15.69250025826071
  H   2.38454243072150     -7.43826391869143     16.39926857543908
  C   0.99111139890230     -9.06056528460935     16.11922971885902
  H   0.67094444991634     -9.05730915428154     17.15989577501318
  C   0.42550669237253     -9.96600066041503     15.21208774387865
  H   -0.32663175239287    -10.67730731312098     15.54868280204247
  C   0.83740516785082     -9.96140823882755     13.87305879541668
  H   0.42182755049758    -10.67958641481228     13.16946084977040
  C   1.79888225880173     -9.04485721683476     13.44147941359441
  H   2.14313307186939     -9.05961669884550     12.40854634788923
  C   4.99930907796861     -7.53060161486489     15.70373753277272
  C   5.04312667551513     -6.81625460486195     16.93050536512563
  H   4.73626402207149     -5.77375343918936     16.94295121953089
  C   5.42676934934892     -7.43926259211414     18.09825128552592
  H   5.43250302544870     -6.89454042420279     19.04148756953519
  C   5.85893599020267     -8.79217135794948     18.07843586821306
  C   5.82967442775420     -9.52361359793568     16.83851645687315
  C   5.32848117701004     -8.88960513324439     15.64981698261654
  C   6.34211149153274     -9.42931494016423     19.25455355010001
  H   6.35549334292021     -8.86356683431426     20.18549979386533
  C   6.79703530382618    -10.73450088114345     19.21530919828770
  H   7.15909338299786    -11.21589379374150     20.12243772326090
  C   6.79574530689395    -11.44873688962507     17.98957655229329
  H   7.17018249571216    -12.46990161231604     17.95810958975429
  C   6.33370434905190    -10.85588778348599     16.82903705870390
  H   6.36036654957221    -11.40399299164743     15.89194485223365
  C   5.19277654556743     -9.63601229391446     14.37029422418827
  C   5.81447012919416     -9.14859174887051     13.22329503479131
  H   6.40986551418844     -8.24092276839741     13.27769815640423
  C   5.69034745596843     -9.80520339069693     11.97630841554182
  H   6.20388953924945     -9.39802545221975     11.10847223276516
  C   4.93553025925789    -10.95781679458095     11.87542838962988
  H   4.84055005924126    -11.47763734893532     10.92225164200106
  C   4.26027117568347    -11.48570323920570     13.01161468056315
  C   4.37255734099585    -10.81612249185926     14.28185275172748
  C   3.62552625648012    -11.32677457373990     15.38028529938897
  H   3.64742197014357    -10.80040993456907     16.32969289559344
  C   2.84763304252241    -12.46216811590491     15.24652289685078
  H   2.28127690060901    -12.83032755622013     16.10035964854883
  C   2.76505338020414    -13.14013457013683     14.00464657899966
  H   2.15201329879907    -14.03532755613698     13.91428709701867
  C   3.45206311251182    -12.65252491734038     12.90857537964990
  H   3.38254513118869    -13.15325350714425     11.94309205071969
  C   8.76733824998064     -1.23562675174819     11.11373861149280
  C   10.12321269095430     -1.48414496740249     11.41108867189338
  H   10.40620531349735     -2.40562911519316     11.91625245501819
  C   11.11295664533496     -0.58553788737009     11.00180990481697
  H   12.15678487798401     -0.79554492851454     11.22801957272158
  C   10.76661734259695      0.56935405374653     10.28795422619580
  H   11.53863043522187      1.26771758375982      9.96992200009062
  C   9.42238802867794      0.81720892016533      9.97459570672932
  H   9.14731823962267      1.71052722560417      9.41629791902113
  C   8.43100037600698     -0.07842719573421     10.38265685460911
  H   7.38643695151387      0.13113032926410     10.15893887434473
  C   9.60375369869480     -7.73564048911018     11.35309471821945
  F   8.71047714401500     -8.75510605189105     11.26364572992416
  F   10.46387034317511     -8.02428338717189     12.35873061133341
  F   10.28573585667278     -7.65193984459334     10.20184982886453
  Fe  7.58002832250985     -5.35618961452097     14.61021153601517
  N   8.12023458465495     -7.13951228362368     15.74318415417550
  N   7.31251453487749     -4.71397598239409     16.65927214753571
  N   7.05309658267608     -3.87202476899671     13.15601943429447
  N   5.38734903320796     -5.84256860633454     14.02524872731122
  O   9.29637879309240     -4.69595441799378     14.71081341527388
  O   7.94338116309155     -6.57300380073320     12.96520014714327
  O   7.87039530958228     -5.84441938600124     10.57802902138610
  O   9.81696622603377     -5.19515982185686     12.05228312896316
  S   8.72624070106500     -6.13679844679625     11.72371540564209
  H   9.79654921988941     -4.83682327563387     13.86413669235096
