158
Coordinates from ORCA-job AVEWUU-oxo_1_5_tpss_d4_lanl2dz_631gpol_Fe2.opt
  C   8.59330535755339     -8.24086994571189     15.13646180787888
  H   8.44689248596043     -8.38097663013271     14.07197841796169
  C   9.22664801680028     -9.23424020983014     15.92877121703260
  C   9.37826283246480     -8.96934821250596     17.29133476385509
  H   9.88078994348370     -9.68725859767829     17.93630433909092
  C   8.91794545654523     -7.75507773708542     17.83896791787679
  C   8.30192051153101     -6.82552908177186     16.96135353551808
  C   9.05903210820289     -7.40845775417566     19.22625085134542
  H   9.51905224783781     -8.13314176439254     19.89515314766561
  C   8.63294021693823     -6.19542813955588     19.69944788874784
  H   8.75271626693034     -5.93793545842049     20.75044919317967
  C   8.02264921089363     -5.23373294505096     18.82329215937823
  C   7.84522911751701     -5.56230997986757     17.45650281539498
  C   7.55095609313633     -3.97321898585477     19.24431499133837
  H   7.64526671342167     -3.68647328126130     20.29083327676291
  C   6.93512691461039     -3.09680187658257     18.35157840031798
  C   6.80017860648324     -3.51607386281368     16.99127756506387
  C   6.44661182038044     -1.78410175478264     18.83132693053313
  C   5.14831796764405     -1.32629747166007     18.53637778045762
  H   4.48836375029603     -1.92889593243943     17.91616468955410
  C   4.69127606917965     -0.11592929596880     19.06671600043197
  H   3.67959444937593      0.22044945585310     18.84602741132791
  C   5.52703385574303      0.65677001037932     19.88347157296256
  H   5.17077985327245      1.60199796029128     20.28893157923901
  C   6.82548898377844      0.21576519238185     20.17001063414543
  H   7.48725501058428      0.82307352947191     20.78377889602882
  C   7.28079613962190     -0.99917155060352     19.65213638748639
  H   8.29935616164988     -1.32966783986369     19.84954296786709
  C   9.69853310127882    -10.48660498701593     15.30376690401288
  C   9.70727600739183    -11.69194977287135     16.03587187339339
  H   9.33689268459513    -11.70053025968685     17.05890908586019
  C   10.14706448126858    -12.87901003980324     15.44501866687771
  H   10.13922837566001    -13.80374467806584     16.01954245490939
  C   10.58726438657801    -12.88125120233030     14.11382715200424
  H   10.92753843987983    -13.80677731810090     13.65301509659412
  C   10.59134861562721    -11.68696085164923     13.38095939509836
  H   10.94407113047899    -11.67729060162304     12.35133237261567
  C   10.15259092407348    -10.49750804998291     13.96906504688225
  H   10.19759578049580     -9.57343644499559     13.40052495078635
  C   6.17411612457219     -2.66802265890490     15.93919786709957
  C   4.90907038929459     -3.06215933360108     15.42592029480439
  H   4.41889542294459     -3.93739966197156     15.84478318689580
  C   4.29827135069263     -2.33661473221113     14.42635851646785
  H   3.32054957609105     -2.63077613322265     14.04704900027629
  C   4.95916495754395     -1.22065750822624     13.84533427357683
  C   6.23825934880831     -0.81004321538126     14.36378161935867
  C   6.81579757318651     -1.51768887821286     15.47110957840310
  C   4.39593055142410     -0.51748840228454     12.74621989127971
  H   3.42857952646469     -0.83879004415612     12.36159088360566
  C   5.06677831944409      0.54587125863940     12.16828618579747
  H   4.62328532458161      1.08210989338523     11.33076353747249
  C   6.33559796946318      0.94047121715231     12.66529921841681
  H   6.86590841885055      1.76783043208272     12.19850919317298
  C   6.91231602590283      0.27334975180574     13.73013305842269
  H   7.89395422034166      0.56724803567817     14.09172329496177
  C   8.08339644606974     -1.06873799400138     16.10743718698556
  C   9.17221050031205     -1.93436989785361     16.15592602376534
  H   9.10618084972942     -2.91440987135107     15.68509481803226
  C   10.37905928311215     -1.56514578663198     16.79662566288887
  H   11.21282746519810     -2.26526274787817     16.80441425445073
  C   10.49702618744282     -0.32365680810716     17.39153327270885
  H   11.42520420137854     -0.02726406553746     17.87972188872067
  C   9.40938077286833      0.59403563381051     17.37665810120782
  C   8.17407860263547      0.22328131375969     16.73561623150449
  C   9.51400684821483      1.86869166037808     18.00081253523071
  H   10.45629990955057      2.13935004637573     18.47676165216986
  C   8.44669998372905      2.74732550504607     18.00472131648193
  H   8.54021727975768      3.72189673270037     18.48087686435855
  C   7.22289342748260      2.37330490787962     17.39529129583844
  H   6.37681039107530      3.05800680805629     17.42119015235653
  C   7.08759751596522      1.14104709271104     16.78209797811945
  H   6.13355455589251      0.85954961056932     16.34592442276955
  C   8.08472621655595     -3.02025504943775     12.79791641947570
  H   8.98490830065148     -2.95363656223126     13.39961800244919
  C   7.90352695068251     -2.22723308634357     11.64058234458254
  C   6.71326014050453     -2.39681201292336     10.92909251031365
  H   6.54286317841291     -1.83878501164271     10.01090457285602
  C   5.75030972044025     -3.33728639877633     11.34839274447158
  C   6.03302571655551     -4.09664450255620     12.51041304284180
  C   5.14049230733469     -5.10595355189595     12.97084896165011
  C   3.93926511804473     -5.33394233025325     12.25949036133599
  C   3.65122511103053     -4.54942659437647     11.09188014215364
  H   2.72484092173300     -4.74456222976299     10.55478782530589
  C   4.52312194072724     -3.58964995683124     10.64992664453785
  H   4.30363549197670     -3.01020316826375      9.75533555933338
  C   3.07343770899353     -6.32052713023676     12.76688838905700
  H   2.12217054238589     -6.51022217804462     12.27199384093375
  C   3.39723190518886     -7.03356220204028     13.91706025037415
  C   4.64905848852026     -6.75829385867455     14.55861364078784
  C   2.43340160228419     -8.04037837656419     14.42208622270043
  C   2.01189261418790     -8.06560964957955     15.76485105473461
  H   2.42945836754812     -7.35983430529996     16.47927642652236
  C   1.03199500300912     -8.97391818734688     16.17780360506035
  H   0.70184077593767     -8.97374490182600     17.21533549660823
  C   0.47228992214839     -9.87398465523055     15.26168953169422
  H   -0.28473546435608    -10.58463866002192     15.58834855633234
  C   0.89635792158621     -9.86517311263123     13.92677850893767
  H   0.48470951444594    -10.57877744942268     13.21634028589159
  C   1.86643212896159     -8.95134538609719     13.50831679064970
  H   2.22254203874638     -8.96443181618836     12.47944137250871
  C   5.05203108680059     -7.49397418647314     15.78798328203277
  C   5.04151212621366     -6.78702788700624     17.01990976496103
  H   4.73589707332126     -5.74380115423830     17.02372093002071
  C   5.36923759555052     -7.41764387224724     18.20134614365102
  H   5.32553108738579     -6.87959714141551     19.14699515426971
  C   5.81476512501525     -8.76605287889400     18.19004179991442
  C   5.82919939167878     -9.49207989103058     16.94788896080513
  C   5.35588742617710     -8.86077072277523     15.74638007752508
  C   6.26990699131605     -9.40441391864098     19.37743065895369
  H   6.24587889325338     -8.84481714562492     20.31172630209874
  C   6.74693429300458    -10.70122406070217     19.34433606998256
  H   7.09048085391283    -11.18258638937081     20.25850677176178
  C   6.79193025883353    -11.40884160737302     18.11478475591617
  H   7.17689777828341    -12.42695262034558     18.09262001365840
  C   6.34973770093883    -10.81828492153734     16.94509485667339
  H   6.40389901168827    -11.36157124136658     16.00582242199941
  C   5.18624576944257     -9.62280983864774     14.48258308139799
  C   5.76709125746048     -9.14576382707748     13.31016898139004
  H   6.38448394793573     -8.25266136724930     13.34076294722797
  C   5.58088938864106     -9.79648729571982     12.06829456216093
  H   6.05021637355038     -9.38179398090046     11.18064893806962
  C   4.81666627110604    -10.94541624669605     12.00330514318788
  H   4.67606500777656    -11.46515705303227     11.05565811573362
  C   4.18906961319426    -11.47019464433389     13.16837712049400
  C   4.35001991537285    -10.79628736341339     14.43098657104655
  C   3.63002019277112    -11.29434799538159     15.55295744542516
  H   3.68180118032295    -10.76344522703187     16.49842234269614
  C   2.84109384845951    -12.42669320524333     15.45072744384165
  H   2.29851243172112    -12.78489196743679     16.32408306738880
  C   2.71779913728181    -13.11249452975930     14.21778690311268
  H   2.09819871851554    -14.00523695347305     14.15148874007533
  C   3.37263237176332    -12.63298826421532     13.09773584656788
  H   3.26859641739071    -13.13703405600786     12.13708072679298
  C   8.97367341770392     -1.30938444583987     11.20507389439326
  C   10.32425541545786     -1.61381499209636     11.47367408153820
  H   10.58217912065945     -2.55094037323229     11.96368010837993
  C   11.34082018396415     -0.74878093629475     11.05877665724636
  H   12.37940497121409     -1.00240194109052     11.26299256898897
  C   11.02706613868446      0.42876084958274     10.36708545506153
  H   11.81995659735639      1.10104360214164     10.04443651560111
  C   9.68827148604157      0.73261728515339     10.08183238188281
  H   9.43810214005561      1.64348416117345      9.54052239437318
  C   8.67030379978781     -0.12981080989363     10.49563479310377
  H   7.63155872666601      0.12277881030171     10.29164917321101
  C   9.19232822106125     -7.83065056385994     11.03401208798821
  F   8.65538437511596     -9.02181091488037     11.41606256166409
  F   10.33608714732005     -7.65116436718520     11.73985132082811
  F   9.49382684182315     -7.89621255569292      9.72693512051979
  Fe  7.58261538400007     -5.39147139536508     14.51624282279929
  N   8.14133211568391     -7.08994353094945     15.63655672833569
  N   7.23545039214932     -4.71842748943388     16.58298939873760
  N   7.18614206548802     -3.91370378382103     13.21288388388258
  N   5.49154430057965     -5.81228788494865     14.09228136559632
  O   9.11812475877761     -4.84010361038773     14.66975476046320
  O   7.83438002974231     -6.66634461994623     12.88468319054949
  O   6.76989878115590     -6.78587267218350     10.65066028479693
  O   8.71518950156132     -5.21913842994618     11.03137060247376
  S   7.99668195844474     -6.44667940688221     11.37943540756630
