158
Coordinates from ORCA-job AVEWUU-oxo_1_3_tpss_d4_lanl2dz_631gpol_Fe2.opt
  C   8.60884704299591     -8.29430715505201     15.05643889655939
  H   8.45485930954083     -8.44476261824498     13.99580185594731
  C   9.22140021309430     -9.28971918574185     15.86429662704192
  C   9.38722742995422     -9.00993982989039     17.22343037031538
  H   9.87608121935379     -9.73111391026467     17.87465455804103
  C   8.95498685028360     -7.78028796114357     17.75791196241653
  C   8.35971407218005     -6.85330205424915     16.86804611714769
  C   9.09238213023174     -7.40705913885494     19.13779630639880
  H   9.54447254069949     -8.11810852069723     19.82609819911530
  C   8.65876600843255     -6.18493312766320     19.58062233722871
  H   8.76216519187801     -5.90742812916246     20.62812287223562
  C   8.05664698725748     -5.23720503549546     18.68248824273146
  C   7.91691277548342     -5.57971120068534     17.31759451914708
  C   7.55372447445682     -3.98510272535033     19.08209129987696
  H   7.62321868399999     -3.68077365493295     20.12524327627906
  C   6.92306346777821     -3.14572660857841     18.16730674840232
  C   6.82771345134463     -3.56562932862667     16.80088876720153
  C   6.39871242721414     -1.84174410828163     18.64158481363257
  C   5.07953651090241     -1.42271604681079     18.38642405836505
  H   4.41690366075441     -2.04419660435673     17.78903584952113
  C   4.60584393424128     -0.22301747629320     18.92691160529436
  H   3.57855826287809      0.08317111695285     18.73662189007009
  C   5.44387689283757      0.57687261593102     19.71461639211143
  H   5.07350103485362      1.51351428917016     20.12726244611797
  C   6.76244586435561      0.17417604541709     19.96187941282026
  H   7.42638016510039      0.80270251728637     20.55139984903883
  C   7.23509657403450     -1.02960436656043     19.43380509998963
  H   8.26866060393269     -1.32973895318351     19.59951558979701
  C   9.66436428465892    -10.56460444671299     15.26264596741113
  C   9.66855138508550    -11.74986392536266     16.02735250659344
  H   9.31062778815642    -11.72694087061653     17.05420491384881
  C   10.08611588686623    -12.95830707865691     15.46503183689212
  H   10.07426626332032    -13.86606887648830     16.06590451779378
  C   10.50970071138623    -13.00374246985691     14.12934050167724
  H   10.83315085200083    -13.94580112017243     13.69053837751400
  C   10.51921594690030    -11.83020148488826     13.36396221659461
  H   10.86095079315780    -11.85334035870567     12.33084098337244
  C   10.10163036538500    -10.61948933258000     13.92358786654373
  H   10.15428061766768     -9.71269261355143     13.32939171973433
  C   6.13767922242903     -2.71586244483003     15.79755034266625
  C   4.84116570889475     -3.10731311199519     15.36957224344619
  H   4.39653210691670     -4.00744873475635     15.78735203774065
  C   4.14363774308293     -2.34571923263603     14.45680238894763
  H   3.14172981801233     -2.63625083328039     14.14475344753635
  C   4.75045001601284     -1.20423459177053     13.86760473655190
  C   6.05769711468042     -0.79296213646960     14.30775774051646
  C   6.71855144321274     -1.52593023326281     15.35154354258688
  C   4.10461035008213     -0.47876924868340     12.82887984221933
  H   3.11552016583767     -0.80097321200737     12.50544866721821
  C   4.72625238588024      0.60081147236405     12.22899631271091
  H   4.22390780448027      1.15021402297218     11.43452664515356
  C   6.02421536115813      0.99414466799036     12.64620260560702
  H   6.51312359279793      1.83837325204741     12.16339921914800
  C   6.67725951627799      0.31136649427725     13.65632617640132
  H   7.68024674587448      0.60604934456383     13.95232874404267
  C   7.99665564876891     -1.05804283300580     15.94935953041306
  C   9.09511354240109     -1.91305365278631     15.99714592286654
  H   9.03219655956224     -2.90740801243148     15.55978901574199
  C   10.31512296838176     -1.51987902855149     16.59634685319318
  H   11.15419847074249     -2.21353491037012     16.59672169189717
  C   10.43807078254468     -0.26377192842457     17.15752383237910
  H   11.37690946585315      0.05372947854700     17.61066575045779
  C   9.33812639870316      0.63916690251737     17.15972436199245
  C   8.08891575013701      0.24369717868491     16.56131544351002
  C   9.44528243720121      1.92148619251534     17.76761648016069
  H   10.39954063432453      2.21008975883005     18.20777662901405
  C   8.36509433090285      2.78334639011630     17.80376674535699
  H   8.46005739197090      3.76344582605417     18.26808711143510
  C   7.12565062380104      2.38167297122251     17.24653559305298
  H   6.26744057223374      3.04920056221064     17.30340504655822
  C   6.98899861709681      1.14271706830107     16.64716098844121
  H   6.02161432679916      0.84088627723860     16.25772474116394
  C   8.22354235476400     -3.09447370323161     12.93909215698759
  H   9.15307793437464     -3.09941639749237     13.49450997381842
  C   8.03521199818994     -2.23541157013130     11.83089374964077
  C   6.82565380041394     -2.32420551032484     11.14125183365253
  H   6.64918654470942     -1.70763966294971     10.26262613193230
  C   5.84811266999889     -3.25659513711447     11.54098786962396
  C   6.13610776042349     -4.08128457667458     12.65724690086546
  C   5.22219105666679     -5.08251396657832     13.09207555401251
  C   3.99331954257489     -5.23943113145962     12.40965306193309
  C   3.70145719549730     -4.39075719022913     11.28780098858883
  H   2.75416588448332     -4.52753610827498     10.76924690160680
  C   4.59327433020468     -3.43956747155786     10.86836992032239
  H   4.36782979677710     -2.80718423447061     10.01210447720796
  C   3.10833894336507     -6.21354545551556     12.90744454536851
  H   2.13921335134005     -6.35770636832281     12.43202521851527
  C   3.43560807167628     -6.96803478999206     14.03148578017921
  C   4.71000967929826     -6.75296332185455     14.64586947934684
  C   2.45834245576215     -7.96528364725572     14.53046012742317
  C   2.06108285103577     -8.01422706763864     15.87990337087197
  H   2.50416706332530     -7.33194166511655     16.60184166666192
  C   1.07406791879929     -8.91576716592933     16.29092149363695
  H   0.76322066356047     -8.93401186189423     17.33426278520113
  C   0.48281874885829     -9.78559912278584     15.36544929655513
  H   -0.27971811857339    -10.49124059752180     15.69022629867920
  C   0.88198816825902     -9.75290174490638     14.02325853154074
  H   0.44540725016434    -10.44332074810095     13.30482300918538
  C   1.85933537088355     -8.84558983216563     13.60727749525938
  H   2.19461855554022     -8.83947811597458     12.57135515791552
  C   5.11738625614615     -7.52173790346162     15.85248991266345
  C   5.14672389597770     -6.83820988613395     17.09758988752064
  H   4.86389251838631     -5.78797435255598     17.12679152943282
  C   5.48452587188067     -7.49883480996559     18.25957728272578
  H   5.47376096623519     -6.97885026177220     19.21622920852701
  C   5.89631028219943     -8.85744418754487     18.21285737011210
  C   5.87048221925546     -9.55882802023550     16.95677085068350
  C   5.39473758831886     -8.89123184134783     15.77590877532159
  C   6.35872049967989     -9.52958105280068     19.37850861165034
  H   6.36589088264443     -8.98794727792826     20.32378449503400
  C   6.80086851795583    -10.83772459714216     19.31228770177715
  H   7.14858050232331    -11.34523875853272     20.21061901324011
  C   6.80188783202029    -11.52307274554443     18.06955465455426
  H   7.15743105342371    -12.55090646021351     18.02106181681740
  C   6.35469317004556    -10.89817734122134     16.91963266781217
  H   6.37646075993811    -11.42466702901290     15.96971173115205
  C   5.20020245375249     -9.61618914616393     14.49282990101861
  C   5.78358063886996     -9.12129700964720     13.32965961414888
  H   6.41119625569177     -8.23662338926910     13.37725716410086
  C   5.58063883587285     -9.73810142868168     12.07284057591363
  H   6.05665853986921     -9.31394773294923     11.19261798564836
  C   4.79186267547393    -10.86817259566920     11.98197484992379
  H   4.63658509436936    -11.36090141934566     11.02232383132182
  C   4.15631893072850    -11.40679523937957     13.13618598223933
  C   4.33856353837297    -10.76922685576158     14.41498695706164
  C   3.61429795505109    -11.28029413053527     15.52855364037135
  H   3.68255397068805    -10.77438157161861     16.48668492711781
  C   2.79948069098534    -12.39073670999255     15.40157340735714
  H   2.25316423713891    -12.75905524441917     16.26840700928723
  C   2.65356745264756    -13.04150423978165     14.15144710781317
  H   2.01307961508756    -13.91777800980088     14.06626473392539
  C   3.31291562720742    -12.54898174651210     13.04066680695889
  H   3.19268343145222    -13.02590056548102     12.06811721199289
  C   9.12956006342508     -1.33358067372610     11.42153686312907
  C   10.47396984143746     -1.72176049473426     11.59844450751667
  H   10.70436237785110     -2.70820925684370     11.99676767351894
  C   11.51177727508912     -0.87264863946861     11.20375794636047
  H   12.54494398662152     -1.18961712122038     11.33395022066744
  C   11.22550798422757      0.37177963313095     10.62625259484258
  H   12.03542883832579      1.03148153141512     10.32019251307817
  C   9.89208486965377      0.76009057981983     10.43462114339928
  H   9.66344703648421      1.72435256081754      9.98368490686549
  C   8.85213105175771     -0.08647090086894     10.82710960617255
  H   7.81810824535910      0.22730363137669     10.69894970589371
  C   9.30045658929900     -7.75821895638417     11.15379270335244
  F   8.65269623851042     -8.92306635564886     11.42296947326316
  F   10.38679278920225     -7.69225772765215     11.96215461433389
  F   9.70859079984754     -7.77782186927921      9.87570689732810
  Fe  7.68984764120829     -5.49053528736138     14.54000440937181
  N   8.18757221221245     -7.12795870667771     15.54751814309223
  N   7.33388493410256     -4.74948023088480     16.39474539185732
  N   7.30535526244537     -3.97101033770289     13.34631269128868
  N   5.58026740205689     -5.83742489183612     14.17469953648011
  O   9.24711806495296     -4.99115156421738     14.66937241842269
  O   7.89206776401481     -6.59679035068975     12.95072560321346
  O   6.99145183545966     -6.52981493825624     10.64196628370840
  O   9.01756795978785     -5.12559585338777     11.23056015337499
  S   8.18165404289162     -6.30165203606876     11.46167120675669
