51
Coordinates from ORCA-job GIBDUS-oxo_0_1_tpss_d4_lanl2dz_631gpol_Mn3.opt
  Mn  7.39844160748026      4.40200313719149      3.11604997011518
  O   8.73820149580455      3.53853378947892      2.17539326337274
  O   13.93361466158877      6.70028142560734      2.38310191931561
  H   14.40779920766475      7.38924607816318      2.88560713943354
  O   6.33359663056357      2.95428257387536      2.66581668496653
  O   3.48181363462003      3.55700519869506      7.23088831870074
  H   3.98575518492794      2.75681803311714      7.48349907241093
  O   6.96640762888053      5.56705003059455      2.11763058072600
  N   8.65852808512635      5.61701152250072      4.01461534584114
  N   11.99469630781901      3.57578565981648      0.71120069159380
  N   6.11727562753074      5.07499857222767      4.45305486054730
  N   3.70960462579906      0.66570992027592      3.46380885650852
  N   7.92575804102651      3.27123728656363      4.83164795404482
  N   9.11953555464637      3.12981193582050      5.03181225912125
  N   10.26189639335166      3.01299141805970      5.25966320218770
  C   9.96871354555751      3.96861037205097      1.97880594032981
  C   10.74507922924838      3.23479247024946      1.01766127414401
  C   10.12051660872041      2.05461916588858      0.32324092668507
  H   10.85826198392281      1.59733598275959     -0.34341416012680
  H   9.23850631749599      2.36197274339350     -0.25590411662117
  H   9.77120294579206      1.31535643556741      1.05771100567726
  C   12.56843860440420      4.63335493850957      1.33952763250374
  H   13.59308415528950      4.86002185306668      1.05939742588274
  C   11.92552577869107      5.40203516732164      2.30261486425385
  C   12.64852877536674      6.54768595777969      2.98285400882350
  H   12.05542634412870      7.47652124143255      2.88290448225227
  H   12.74293115928900      6.33254286483630      4.06457359284193
  C   10.58212628997643      5.07429519636425      2.64004747430677
  C   9.90977621191246      5.77701046104891      3.70436554540834
  H   10.49461010077588      6.47550082938995      4.31113318913896
  C   8.07646958190523      6.27399238788445      5.20034175023936
  H   8.52157809890960      7.26760814499985      5.34861644859986
  H   8.28547280087869      5.64993908811362      6.07853958508793
  C   5.28228030203550      2.51353097104083      3.32194609891528
  C   4.77465609175330      1.23411665797623      2.89909344393979
  C   5.47482815632809      0.51108537285305      1.78066625754188
  H   4.99987459769298     -0.46248079351142      1.62506225931761
  H   6.54009904417045      0.37940318660933      2.01487898672426
  H   5.43140539793029      1.09579818834282      0.85098034613092
  C   3.08267155157320      1.31978361793720      4.47153125191469
  H   2.22018901460783      0.80712610046520      4.90112915310498
  C   3.47289855609120      2.55939586338337      4.96739853213512
  C   2.67936081128987      3.19746259416097      6.08873623665698
  H   2.22542545053118      4.14375111958194      5.76545278158967
  H   1.86014962221305      2.52062961554870      6.38097894809663
  C   4.61756609274223      3.18339910483471      4.39137878809820
  C   5.06860074225764      4.45992173780884      4.89789562387101
  H   4.51164434186760      4.90182869379035      5.72748719612845
  C   6.55835588889333      6.36825205293671      4.98223841389188
  H   6.03646921351280      6.62061636327487      5.91519427760947
  H   6.33765190541399      7.12811767032124      4.22044441601954
