52
Coordinates from ORCA-job GIBDUS-OH_0_2_tpss_d4_lanl2dz_631gpol_Mn3.opt
  Mn  7.56019351983710      4.14548312358485      3.35454413556011
  O   8.97391518075811      3.34548639612351      2.47454049746145
  O   13.77733823196672      7.05381811229114      2.15919013661043
  H   14.17587111493185      7.84433290650869      2.56974967698340
  O   6.21558127373455      3.07447345179299      2.62333146392070
  O   3.66512737541062      3.52662412294615      7.28208014935257
  H   4.17298770420122      2.70667921781560      7.44972807086008
  O   7.30441052405774      5.41815996694196      2.07533470392374
  N   8.77402792331253      5.43977624987487      4.20637452405412
  N   12.05959096231295      3.69542506792908      0.70167594834141
  N   6.19384037436546      5.03114198873010      4.49408675361608
  N   3.51029568784954      0.84039286989451      3.36186765829709
  N   7.79038960095079      2.91090174303491      4.88077644489247
  N   8.92155075211461      2.70057727787911      5.29173094125155
  N   9.98397268289256      2.47482669520665      5.71858010396021
  C   10.11822484112198      3.89569282761084      2.13053642394835
  C   10.88645203149550      3.22639294105428      1.12020685510203
  C   10.34261404612165      1.96491660180661      0.50462491530811
  H   11.04983583569924      1.59461793574119     -0.24407954655074
  H   9.36669075388420      2.14951368319518      0.03364465532929
  H   10.18026655068801      1.19589229023477      1.27326103948117
  C   12.55990238097421      4.83095096422294      1.25584588789339
  H   13.52074529243598      5.16615967162875      0.87622434862326
  C   11.91675829589371      5.55155767329217      2.25326794532014
  C   12.54265987639017      6.80600268247399      2.82877642608177
  H   11.84833283998892      7.65851621480622      2.70408222193198
  H   12.70663015839892      6.67384094087871      3.91574285714888
  C   10.65090588430858      5.08303214551809      2.71270811406776
  C   9.96743797765204      5.74829179038370      3.78836081080917
  H   10.49059418395963      6.55682062155353      4.30931966541699
  C   8.15143649899456      6.13900378905386      5.33666466335356
  H   8.64680352346432      7.10029756102142      5.53200283934349
  H   8.23394282326460      5.50183225314309      6.22774834597538
  C   5.17147032260370      2.60531093011917      3.27718030183063
  C   4.57424876063476      1.39635507365597      2.78286881239190
  C   5.18632639453046      0.72240524244625      1.58432576122736
  H   4.62909991490372     -0.19155840088091      1.35654064454198
  H   6.24120697897015      0.47977062398480      1.77428602101567
  H   5.17163095217323      1.39048508930223      0.71108507707572
  C   2.96532809998423      1.44690708311248      4.44621686735636
  H   2.10503190115702      0.94006678580642      4.88664071633449
  C   3.43304907372592      2.63346721706952      4.99707913193583
  C   2.75125010652486      3.23251598488338      6.20805556104311
  H   2.29002421068450      4.20088157910258      5.96959440663051
  H   1.94646532232773      2.55791276821237      6.54344921376264
  C   4.57939715696309      3.24010533785928      4.40599557868586
  C   5.08105645573061      4.49987654470299      4.90085327546651
  H   4.49782708023993      5.02600790990843      5.65983231182295
  C   6.66773741921136      6.32862997626148      4.97562358078969
  H   6.08147455751560      6.67827363314747      5.83665153937868
  H   6.58369357328550      7.04226057979475      4.14593572753377
  H   6.56410501540023      5.08366426333749      1.52219579350656
