50
Coordinates from ORCA-job GIBDUS_0_1_tpss_d4_lanl2dz_631gpol_Mn3.opt
  Mn  7.76202874776006      3.96504651844499      3.65521517920262
  O   8.93225672538490      3.56178238806172      2.29888028325483
  O   13.88558210009304      7.08450050765605      2.18462910657611
  H   14.32145282472602      7.82314526788883      2.65014828235744
  O   6.57715953664905      2.68146249510708      3.03893169923300
  O   3.17072308314282      3.87554078998053      7.03525516063169
  H   3.53696344708166      3.05104430752894      7.41477570409563
  N   8.83116131563679      5.48856086104809      4.17790699712409
  N   11.99268970667228      3.94450051475978      0.47080109042731
  N   6.35645729107619      4.91455656075385      4.58567924981604
  N   3.63722287102434      0.69402772148468      3.52271886750689
  N   8.33344608469978      3.01734548985298      5.18115157989822
  N   8.33109321332417      1.78357797529479      5.10718470370962
  N   8.36093162720971      0.62390600110575      5.15999451394296
  C   10.10476835191866      4.08332428888204      1.97559697142608
  C   10.80423793805179      3.49478540832431      0.87417580210849
  C   10.19031182535810      2.32196775267056      0.15547674373941
  H   10.85203507534777      2.01225381864893     -0.65945106700992
  H   9.20192964243407      2.58384263545834     -0.24770630406767
  H   10.03373501173228      1.47977485229734      0.84417931469599
  C   12.55173732956659      5.00234996444738      1.11586691827531
  H   13.52006624863207      5.32893732463141      0.74711460052466
  C   11.96072551594183      5.66105474165325      2.18587982505129
  C   12.64797564916224      6.83694979402574      2.84966401518219
  H   11.99241346834452      7.72805921880354      2.80121056921847
  H   12.81349287029724      6.61361856138692      3.92086239958327
  C   10.69209430260000      5.19619054214803      2.64454836306235
  C   10.00584535130976      5.85167752829008      3.72186029425011
  H   10.47910287047346      6.72223901808003      4.18605729707729
  C   8.24533042617269      6.20007979668372      5.32315464100936
  H   8.67784855691574      7.20364390327361      5.44545111535382
  H   8.45027675044861      5.59884428504175      6.22028308843796
  C   5.40080685427191      2.35946825093750      3.52719653323728
  C   4.82371015880708      1.11480128900124      3.09254773124771
  C   5.60908542398864      0.24316103339986      2.14975767918403
  H   5.01899200972976     -0.64368231913818      1.89900989267613
  H   6.55770930606543     -0.06248046667721      2.61294415525680
  H   5.86885925352006      0.79179531106267      1.23376108036483
  C   2.94325069856988      1.48198087752938      4.38849139026400
  H   1.97573084534955      1.08806011215732      4.70492019180615
  C   3.38204811365254      2.70635401504635      4.86826919093702
  C   2.50729248275810      3.50392469538577      5.81056151990346
  H   2.20989897006715      4.46159081701681      5.36190607399350
  H   1.58604870043836      2.93482877304056      6.01727177758952
  C   4.66697282441564      3.17347026399769      4.44340617742392
  C   5.16703233925207      4.44010037566380      4.88707736418944
  H   4.52370990145062      5.03951158211763      5.53432691793159
  C   6.73763705015421      6.25377104585737      5.07153805914400
  H   6.17870796531552      6.51827392362762      5.97945068562384
  H   6.51241134300462      6.99347958625844      4.28916657353158
