18
aromatic rings
C     0.289900    1.495700   -0.000000
C     1.532400    2.143900   -0.000000
C     1.592300    3.544000    0.000000
C     2.957600    4.256300    0.000000
C     4.101200    3.529200   -0.000000
O    -0.981700   -0.701000   -0.000000
O     1.527900   -0.906400   -0.000000
Fe    0.061000   -3.138300   -0.000000
C     0.224100   -0.042900   -0.000000
Cl   -0.055200   -4.597100    1.575100
Cl   -0.055200   -4.597100   -1.575200
C    -0.892700    2.247600    0.000000
C    -2.135200    1.599400    0.000000
C    -0.832800    3.647700    0.000000
C    -3.317800    2.351300    0.000000
C    -2.015400    4.399600    0.000000
C    -3.257900    3.751400    0.000000
C     0.409700    4.295900    0.000000
