67
Coordinates from ORCA-job ATAPOC-CH3OH_2_4_tpss_d4_lanl2dz_631gpol_Co2.opt
  Co  13.56513504769883      4.51870301403099      3.04322430112694
  O   13.75933507274690      3.04215831743915      1.58543489335597
  O   11.52126457150652      4.65898154515041      2.57253575691481
  O   13.98604803990509      6.04632403551085      1.70034033562788
  O   15.50031968424987      4.21768560151791      3.75698761062013
  O   13.39769659918891      5.99295733063800      4.52041896519624
  O   12.78512224711089      3.01527312999386      4.39282499758507
  N   9.60893442986593      5.91572840915016      2.39363176802879
  N   13.28054543997669      2.34740619336333     -0.55104696116500
  N   15.16594568495425      7.96118650803072      1.23806742599320
  N   17.57416214739142      3.23819963417951      3.72267180164339
  N   13.61100017930602      6.59849334559947      6.72468022800350
  C   13.86592287863566      1.01153047555722     -0.36815542518033
  H   14.22365695926006      0.92499350379635      0.65914132215282
  H   14.69682969513246      0.87705148468247     -1.07139709892958
  H   13.10242622684494      0.24962191660787     -0.56546492467650
  C   12.70705785952777      2.65217577002606     -1.87002870161436
  H   12.30901413397341      3.67141529978465     -1.86800056394904
  H   11.89979245662884      1.94442955861045     -2.09318236128688
  H   13.48338408904460      2.56594129571564     -2.63968239268506
  C   18.50695888676386      2.29132148540407      3.09518075097693
  H   18.02050648398973      1.81186806615314      2.24017317150619
  H   18.80202480297761      1.52525526888793      3.82223187737449
  H   19.40182953471355      2.82485446700560      2.75289693734626
  C   13.27252945708545      3.24773749915816      0.43378443954563
  H   12.80709284898671      4.20927935818903      0.18621987066254
  C   18.05620349430925      3.98156568012522      4.89466144548881
  H   17.25445658219255      4.63590178101354      5.24171491116814
  H   18.93539723945520      4.57509576741599      4.61587619196627
  H   18.33809531504299      3.27547517998803      5.68498881670397
  C   16.33633876517752      3.41436683708135      3.25046641004229
  H   16.07524256785240      2.80661474309692      2.37465278441429
  C   16.18577123324549      8.93534435123733      1.65070810300977
  H   16.57451366000667      8.65999962723659      2.63592227822361
  H   15.74240734166371      9.93718205995000      1.70075159200862
  H   17.00735496829120      8.94280875699409      0.92427978251618
  C   14.84545842158993      6.92085199078109      2.01265435080883
  H   15.38367853302097      6.86406995851414      2.96717848820469
  C   13.84636491162295      6.19695302725259      8.11896017198044
  H   14.04367727645552      5.12153127364713      8.16095651445054
  H   12.96208100238667      6.42667941067244      8.72554365595008
  H   14.70869848135619      6.74276556487917      8.52012803127841
  C   13.62101420180444      5.70411641065932      5.73226755204709
  H   13.83487932489695      4.67298154638330      6.03667459706711
  C   13.32752810645073      8.01726526710670      6.47214889403866
  H   13.20010761027828      8.15820652115760      5.39721802760844
  H   14.16233976326082      8.62667487155911      6.83870424306808
  H   12.41290254668835      8.31003376121711      7.00222062267329
  C   8.95079795599851      7.22489144011687      2.51283139881266
  H   9.68832916920165      7.97802105016823      2.80675117497243
  H   8.16023252436179      7.17340485113852      3.27108246304152
  H   8.50747470851733      7.50475437351275      1.54977469260682
  C   10.91115689752584      5.76716450804864      2.64484135870027
  H   11.44344998511982      6.68259179007009      2.92994908051119
  C   8.76873082944742      4.77323273404339      2.00554745877057
  H   9.40278824986746      3.88887273174396      1.92128443485783
  H   8.28805204675681      4.98689484425983      1.04353547998838
  H   7.99425224941439      4.61214199101520      2.76523459119809
  C   14.52483033800147      8.16851637982121     -0.06780138429696
  H   13.77522217791682      7.38842904375775     -0.21205702078150
  H   15.28099704320861      8.11717437235921     -0.86064053901756
  H   14.05140642999766      9.15748544054263     -0.08813839520662
  C   13.35133765064804      1.67747123218971      4.47695324346755
  H   14.32824775637012      1.79589695352450      4.94973259992720
  H   12.71243579925271      1.04572982301806      5.10307132064563
  H   13.46520561649339      1.24746186973715      3.47575465886578
  H   11.87315576738283      2.95168766877974      4.03660789404454
