27
Coordinates from ORCA-job ADENCO10-oxo_2_1_tpss_d4_lanl2dz_631gpol_Co3.opt
  Cl  4.28847299508914     -2.07875300345659      5.34326666033270
  Co  3.26008200851295     -0.16138604276678      4.76319957010494
  C   4.83046621151563     -0.70690552651104      2.35010623632057
  C   3.37125260796215     -0.69863745718232      1.91927684954397
  C   3.96907037014357      2.17065952477956      6.29966470302599
  C   2.62622501643992      2.48283492584913      5.65149364223215
  N   4.93657617425089      0.15499125210366      3.59390680120979
  N   2.55951326036367     -1.06677589731418      3.12639448278984
  N   4.08041135999808      0.67298980270478      6.37592004151855
  N   2.55873973824287      1.69858695254539      4.35943740809457
  O   1.85622806816806     -0.46548775568191      5.56911448555621
  H   2.50793966307530      3.55362421255514      5.44637198220740
  H   1.79213196661826      2.14354602001186      6.27553034200326
  H   3.18160200717497     -1.42079190425807      1.11414207998089
  H   3.04301706458014      0.29110495960462      1.58061587280811
  H   4.04325485768022      2.60382591098539      7.30500982773218
  H   4.80868750591117      2.54032590110383      5.69973372717772
  H   5.77058287610586     -0.14151561748915      4.11826401271487
  H   5.10150105983007      1.13315950822872      3.32247843157480
  H   1.55420656482518     -0.89559807878838      2.98992963784668
  H   2.66115333080920     -2.06833398094953      3.35633645073785
  H   5.49078032248958     -0.32337233834399      1.56439368624634
  H   5.15445904247811     -1.71392281626946      2.63104484793756
  H   5.04692434946915      0.34698992992485      6.51321048544782
  H   3.54289169760021      0.29016740225239      7.16759107112094
  H   1.58223364334748      1.64222548902644      4.04041626512507
  H   3.08219623731807      2.17824862733563      3.61615039860911
