32
Coordinates from ORCA-job ADENCO10-CH3OH_2_5_tpss_d4_lanl2dz_631gpol_Co3.opt
  Cl  4.26597994835459     -2.38467165081357      5.08273353253287
  Co  3.46267874929572     -0.38833376810307      4.57729236422852
  C   5.13023866650158     -0.61812554776883      2.10334043021270
  C   3.71526023229662     -0.42263001287806      1.56375203062078
  C   4.02239443477749      2.11441881187111      6.23344712146643
  C   2.66927034663266      2.37191550742898      5.58202746579776
  N   5.24506714921064      0.08988810162626      3.42383714799249
  N   2.73574314301138     -0.91692366286753      2.58946721447006
  N   4.19050279001174      0.63083366827546      6.34330349907707
  N   2.64035018867732      1.62932781222198      4.27466377300521
  O   1.60233015324502     -0.72202483839837      5.58510045976808
  H   2.49491397862931      3.44395802214463      5.42984654225293
  H   1.85830288139704      1.96680951529399      6.19694505293249
  H   3.58996487675380     -0.95608285184081      0.61355659358200
  H   3.50347002456850      0.63938902448064      1.38762344491513
  H   4.08415428744068      2.59554255215340      7.21741073926295
  H   4.84190207119832      2.50146778953357      5.61548947265141
  H   6.07073331378962     -0.25677330253710      3.92678572561545
  H   5.40771240749820      1.09207365721681      3.26979383300150
  H   1.78692809477265     -0.62705647686071      2.32621767043346
  H   2.72278338586211     -1.94565103471562      2.57919830142998
  H   5.87165054671966     -0.23880175031425      1.38982421764068
  H   5.33410486468240     -1.67933579051753      2.28612642305692
  H   5.16500940280459      0.38176492889052      6.54988504877111
  H   3.64315638652005      0.28066617212564      7.13857983544050
  H   1.67409075535416      1.58825387525600      3.93018780584828
  H   3.16119325640617      2.15910691929448      3.56530339304440
  C   1.45232981630817     -1.64757991415352      6.72850642005885
  H   2.27335094278378     -1.43168227670731      7.41343174999369
  H   0.49085196272674     -1.44702622738565      7.20914413108660
  H   1.52145904223302     -2.68219607985546      6.37750237112638
  H   0.83573189953611     -0.87583117209611      4.99458618868315
