28
Coordinates from ORCA-job ADENCO10-OH_2_4_tpss_d4_lanl2dz_631gpol_Co3.opt
  Cl  4.06413810435818     -2.21807349740995      5.42756714488065
  Co  3.24675575595409     -0.28469117394177      4.76337381438577
  C   4.85226332436290     -0.81193068287451      2.35893867457503
  C   3.47017358825509     -0.60890073177780      1.75163199831430
  C   3.97336467302891      2.28160325784646      6.26602657728733
  C   2.56753282633960      2.43868334411938      5.69416887407270
  N   4.91976079350511     -0.01027496719827      3.64056351022314
  N   2.46993857640612     -0.94408878629089      2.80863549360804
  N   4.22646283033703      0.82358453873500      6.43777162459692
  N   2.47628616077675      1.61463261868666      4.43725843933157
  O   1.72485843529143     -0.52002057268742      5.62424846028599
  H   2.33803291493522      3.48871100272547      5.47578160386455
  H   1.81352056178331      2.04915038205335      6.38628333761155
  H   3.33653640818774     -1.24499109509556      0.86662921750654
  H   3.30922492811747      0.43309062359009      1.45007885618473
  H   4.05944482135436      2.80922613572349      7.22556739914766
  H   4.73522073089136      2.68402201954888      5.58738645963986
  H   5.73099547971209     -0.32879766830008      4.18695273568303
  H   5.08092412182047      0.98214802429662      3.42612040396184
  H   1.53079131815772     -0.59847091925414      2.57982334481914
  H   2.38326751750228     -1.96237944756918      2.92606224409824
  H   5.65003210250065     -0.49194692510983      1.67801833837864
  H   5.01833795517982     -1.85972208604465      2.63175515640242
  H   5.22033208949468      0.60894163144850      6.57833300560441
  H   3.72751867711317      0.45326655096135      7.25672409519157
  H   1.48479505834198      1.45833988357837      4.21411564281821
  H   2.88549732172681      2.12520061783516      3.64492975935783
  H   1.66081292456549     -1.42000207759473      6.03735378816820
