28
Coordinates from ORCA-job ADENCO10-OH_2_2_tpss_d4_lanl2dz_631gpol_Co3.opt
  Cl  4.05656201081462     -2.13972485959582      5.34459491746531
  Co  3.23384396910624     -0.15085086268765      4.70681373875646
  C   4.86545659181315     -0.72863645738799      2.37857526166883
  C   3.43792313500342     -0.65561291074738      1.86371548136500
  C   3.98150745354556      2.16447841240902      6.23875145542680
  C   2.61415569554909      2.47873565398854      5.64690156113809
  N   4.91674359393047      0.12673363657433      3.63033769090598
  N   2.55922193066448     -1.00003951272720      3.03281368001973
  N   4.08263408933861      0.66591022004587      6.30907870128185
  N   2.49070754602766      1.69267181434496      4.36072236684597
  O   1.70852086218824     -0.42202358271980      5.54577516590673
  H   2.48681789638891      3.55022275572309      5.45358232281971
  H   1.80930812223071      2.13905095691802      6.30704626907371
  H   3.26048134605270     -1.36054166065872      1.04161181888808
  H   3.17004798353259      0.35151603124300      1.52376471159995
  H   4.10151452436064      2.59746781535938      7.23976694709738
  H   4.79861484180732      2.52939381995884      5.60523941097322
  H   5.72455578942384     -0.17580493403573      4.19135305087476
  H   5.08631305567939      1.10906823441806      3.37683110416505
  H   1.57237222268426     -0.77194852701329      2.85488427608707
  H   2.60605751978336     -2.01081184792869      3.23619841832635
  H   5.59509809048132     -0.36912698470782      1.64442059973407
  H   5.12656449147199     -1.74774185105717      2.68132610701531
  H   5.04452234250896      0.33356097419838      6.45991984911956
  H   3.53695830701439      0.29423751077966      7.09896781109431
  H   1.49434724087974      1.59981471001191      4.12165831218516
  H   2.93128108515068      2.20393384415305      3.58521226033870
  H   1.66468826256757     -1.35762239885883      5.88223670982676
