26
Coordinates from ORCA-job ADENCO10_2_5_tpss_d4_lanl2dz_631gpol_Co3.opt
  Cl  2.97987992422990     -1.66694767811097      5.66582006553422
  Co  3.50764053969904      0.07652266290360      4.52060824054915
  C   4.94434370885994     -1.37697413873787      2.37859815754232
  C   3.85117113694780     -0.63726610881126      1.60930701374529
  C   3.73132694713042      2.54536632807845      6.26218402541951
  C   2.27636868672766      2.08626000783200      6.32277579125112
  N   5.32248408152072     -0.53020264820809      3.56160618427967
  N   2.73704293912787     -0.32109177951656      2.56885349496132
  N   4.57213987729510      1.36611074136188      5.85859720560769
  N   1.94664046179777      1.45335880344434      5.00062531281969
  H   1.60801276347502      2.93150297219139      6.52751376179902
  H   2.12728465041878      1.32538011203894      7.09767056971534
  H   3.48005649047333     -1.24343676719140      0.77417005117475
  H   4.22293000839813      0.31328173043431      1.20886237004369
  H   4.05981919126515      2.94063813385208      7.23102156919919
  H   3.86899818732190      3.32581681278722      5.50456869396349
  H   5.89911874370480     -1.07336157308931      4.21733168534475
  H   5.90658243851000      0.25770774074088      3.25021772695141
  H   2.12652643297008      0.40694057597350      2.17819283433440
  H   2.13661812213264     -1.14927165255741      2.69116537072515
  H   5.81522164532337     -1.56073675516537      1.73759803561889
  H   4.58256074403792     -2.33698794010730      2.76443997725587
  H   5.49261816346453      1.68108366006727      5.52902360759918
  H   4.75904807273284      0.77295016457985      6.68014227174023
  H   1.05243012555574      0.94869270509924      5.06143270619472
  H   1.81403591687934      2.18486389011058      4.28887327662966
