27
Coordinates from ORCA-job ADENCO10-oxo_2_5_tpss_d4_lanl2dz_631gpol_Co3.opt
  Cl  4.37143785888374     -2.20332671427094      5.46699618467941
  Co  3.31941037544240     -0.29427729916485      4.78878055202062
  C   4.83034057762768     -0.80267416326200      2.33820109309422
  C   3.39961086254130     -0.67808540083004      1.83423287006575
  C   3.96215700577269      2.25563055870129      6.31146802395532
  C   2.58449038428536      2.48036366947020      5.69194613027225
  N   4.94816465070131      0.03517716791450      3.59672644257013
  N   2.49494776726770     -1.02859791713260      2.97679655896414
  N   4.16897246466847      0.78625119583431      6.46306987862086
  N   2.51322931115520      1.69529645823284      4.41433341835627
  O   1.94366360627546     -0.60609617753876      5.62854141117776
  H   2.41067181967671      3.54615825777176      5.49954226326028
  H   1.79123108123172      2.10729514384198      6.34928190312697
  H   3.21853421536469     -1.34542788522039      0.98153079865366
  H   3.16572963229153      0.34688999613226      1.52333839704448
  H   4.03039486814682      2.75192838737472      7.28881821466668
  H   4.76212076261297      2.64767504230855      5.67221797747554
  H   5.80772831552604     -0.23472469257151      4.09404638802161
  H   5.06042833992212      1.02555721906199      3.34473516109783
  H   1.52612335887836     -0.72845976406213      2.81315340747608
  H   2.45428949671356     -2.04677971808951      3.12532267974352
  H   5.56010504466250     -0.46497986014184      1.59299401751495
  H   5.06559738279596     -1.83475262667566      2.62061569852567
  H   5.15598661034607      0.54810654940646      6.61703755823427
  H   3.64972321997349      0.41557419132681      7.27033611434708
  H   1.53113457775678      1.58006338246727      4.13622837873341
  H   2.97437640947929      2.20801499911530      3.65270847830109
