32
Coordinates from ORCA-job ADENCO10-CH3OH_2_1_tpss_d4_lanl2dz_631gpol_Co3.opt
  Cl  4.34825320970513     -2.14548302348773      5.06939298711294
  Co  3.42334394326524     -0.17245294932942      4.53945829770242
  C   5.05563675309909     -0.59168322238218      2.23399737030743
  C   3.62872250739183     -0.54704706345156      1.71104501625308
  C   4.07460908539428      2.08296440419216      6.17849777417790
  C   2.74062907498431      2.43199148341202      5.53249388687901
  N   5.07457383880605      0.17460051564251      3.54117914853160
  N   2.74495858861407     -0.97154278073273      2.85339792579499
  N   4.14792844920351      0.58333371447080      6.20578515249638
  N   2.66804479159134      1.66844660559142      4.22755567725946
  O   1.74608156958125     -0.55757231616358      5.57387786999201
  H   2.63412858990915      3.50866270149899      5.35803537548104
  H   1.90691436727511      2.08729845400225      6.15284202202365
  H   3.49433835550434     -1.21027193841398      0.84843453484350
  H   3.33288889656044      0.46751313890793      1.41741237666730
  H   4.15620324959302      2.49819991229768      7.19005332499017
  H   4.92152670788305      2.45403378454307      5.58834095910638
  H   5.86452259805424     -0.16764195656828      4.10494828735875
  H   5.24353311533266      1.17366163362098      3.36424262815189
  H   1.75967650279537     -0.80686980065082      2.61102903619743
  H   2.84295503240141     -1.98668440453214      3.00963495941568
  H   5.77011601792405     -0.15154945683494      1.52947364038203
  H   5.35930204135127     -1.61663726038348      2.46857052176017
  H   5.09306829225476      0.23919820259456      6.42066708909484
  H   3.54933170992147      0.21810841414805      6.95782608826789
  H   1.69569961671133      1.66912950471086      3.89298455167987
  H   3.18763704400622      2.18436916019870      3.50532592651842
  C   1.54370629642455     -1.75416583903459      6.44594339858954
  H   2.39320792357041     -1.78885716177211      7.12703545324250
  H   0.60882352008022     -1.58331192362491      6.98692251814382
  H   1.51267416989986     -2.66021864218268      5.83752348843400
  H   0.94057414091087     -0.48483189028685      5.02098271314374
