102
Coordinates from ORCA-job QUNHIS-CH3OH_1_2_tpss_d4_lanl2dz_631gpol_Mn2.opt
  Mn  8.87629841474087      5.62632012647872      7.79536822538866
  O   9.47083964049096      7.10350088499315      9.15188640959235
  N   7.01401563560993      6.00978325481135      8.41675859086178
  C   6.15914149187159      4.99701054705845      8.72101765115205
  H   6.56276516659303      3.99593854666642      8.61196124791534
  C   4.84224925061787      5.21164059743628      9.12019089477382
  H   4.22579083232273      4.34308339915565      9.33255998785657
  C   4.32507978566131      6.51434528838650      9.23620943051263
  C   5.21555395005461      7.55772164108768      8.90959154842897
  H   4.89646091690082      8.59706942461463      8.94921076746436
  C   6.51404873390017      7.27665592535285      8.50218883288840
  H   7.18659257548308      8.07320427022136      8.18604829232929
  C   2.88828792857168      6.81846101229173      9.66313374324849
  C   2.09607929392330      5.53467709937435      9.98203771862828
  H   1.07651346488322      5.80183345284527     10.28731114834988
  H   2.55354424739822      4.96992325707948     10.80626250866995
  H   2.01928324092189      4.87659270442119      9.10577842496520
  C   2.91774881554672      7.71657341574275     10.92703046317429
  H   1.89128847647196      7.95450491922105     11.23617471151025
  H   3.44038171281879      8.66424081872105     10.74007926328111
  H   3.41824514255698      7.20608404926849     11.76083784731396
  C   2.17477274265943      7.57319269201908      8.51084005173419
  H   1.14238847126781      7.80556049040849      8.80427145028149
  H   2.14447235630754      6.96076040492588      7.60000559361800
  H   2.67815380288794      8.51973900572217      8.27227729788086
  N   9.05992232245343      4.29599514180233      9.29846769730336
  C   8.72053456080974      4.53698291306823     10.58715879433901
  H   8.30558585310572      5.51886051964851     10.79896400103908
  C   8.85792668800708      3.59736304256015     11.60703565920797
  H   8.55612389936300      3.87730506361650     12.61236150351681
  C   9.36282302793098      2.31582629091150     11.32809027913028
  C   9.71302438612213      2.07446597391950      9.98412864948875
  H   10.10818527300662      1.10912320562261      9.67612911000307
  C   9.55819742240882      3.06021485060979      9.01815851372781
  H   9.80808395308587      2.88466471616699      7.97691328170566
  C   9.52455945232072      1.22268448193020     12.38560915605552
  C   9.09513392302710      1.70188663485778     13.78648242575483
  H   9.23136102442156      0.88719036972069     14.50887710813609
  H   8.03535775998930      1.99177359548230     13.80955623360452
  H   9.69934151965155      2.55403077738503     14.12832075847787
  C   11.01279334999793      0.79035522269091     12.43810340028446
  H   11.14068333426046     -0.00719975465172     13.18206275852642
  H   11.65802628093381      1.63267506681843     12.72187321798924
  H   11.35669231355006      0.40496848995789     11.46932670517747
  C   8.64920942569475      0.00722310371516     11.98089762567516
  H   8.76137131924932     -0.79338265682652     12.72417098026744
  H   8.94300940670979     -0.39542202904117     11.00286420117572
  H   7.58829717671182      0.28614775578754     11.93155826396863
  N   8.23624145178496      4.25306886166921      6.66874486979438
  S   6.67302868201810      2.43548721541089      5.17555875536148
  C   7.56584273321142      3.48048488837513      6.03952189927630
  N   10.76143791801987      5.28116160524982      7.26238091009172
  C   11.77920190385516      5.32456256470723      8.16013188304049
  H   11.49455163530892      5.57194513074640      9.18054446083657
  C   13.10506023558632      5.06278398121441      7.82010643999962
  H   13.86045967687282      5.12796073036120      8.59821675039294
  C   13.44600788720889      4.70739282863940      6.50292290371911
  C   12.37431102692623      4.63305701933940      5.58908421636558
  H   12.54511211392385      4.34607189804840      4.55380934862947
  C   11.07487482450541      4.92025138269119      5.98734743609587
  H   10.23281197890767      4.85516314735446      5.30494305540201
  C   14.87536733367105      4.39763849268454      6.05511559255722
  C   15.89440730753877      4.57611604813786      7.19781671975368
  H   16.90271972162905      4.35391474104633      6.82608589591408
  H   15.90003843138451      5.60684080190051      7.57962471543014
  H   15.69270069627512      3.89373013684600      8.03533478988736
  C   15.25661149171576      5.35274165518975      4.89388373909670
  H   16.27731806325810      5.13316034928768      4.55362034737029
  H   14.58319218332231      5.23605323172861      4.03461855524464
  H   15.22065355792706      6.40142156669774      5.21891262652879
  C   14.93337919055655      2.93059760341575      5.55392432540903
  H   15.94978509935572      2.69536694403162      5.21096982946875
  H   14.66957849666045      2.23017974581337      6.35748606101514
  H   14.24565624206349      2.76345042140503      4.71477875008004
  N   8.69133669076153      6.90871160382517      6.23600037547730
  C   7.53397050525734      6.90758305494407      5.52419794056409
  H   6.77018303839773      6.21801922737023      5.86800910969729
  C   7.32664191797045      7.70989752517510      4.40389742771014
  H   6.37132018213588      7.63643674955976      3.89260282343780
  C   8.33089138580703      8.58072600482685      3.94897494676923
  C   9.53238044958635      8.56561924008262      4.68665156541909
  H   10.37244440961856      9.19375396129820      4.39797467345449
  C   9.67504793010732      7.73390496560148      5.79040806025368
  H   10.61182757022729      7.69308010477120      6.33696760415204
  C   8.17356845994501      9.48923553486877      2.72927380562227
  C   6.77498800938204      9.36569749120751      2.09226252980851
  H   6.70579455693896     10.04134350504249      1.23031669498321
  H   6.57971181013697      8.34650059216404      1.73161302479071
  H   5.98129350657934      9.64507189431319      2.79917391661278
  C   8.39526404361814     10.96077721535349      3.16567859953793
  H   8.28986251622244     11.62396486614137      2.29686399059344
  H   7.65559909816153     11.26275972148500      3.91944042912267
  H   9.39800864063730     11.11529760855164      3.58616555207256
  C   9.24103034440274      9.09688464659296      1.67406320667763
  H   9.14649875527742      9.74630452928450      0.79359407021201
  H   10.26039098995337      9.20761893761416      2.06728586122055
  H   9.10853422386071      8.05606255159078      1.35061955312753
  C   10.25247643930211      8.31328572051041      8.95439786828787
  H   9.73342715140035      9.01057885629731      8.28652990317511
  H   10.44249796598191      8.77680866312769      9.92870822872021
  H   11.19547030694063      7.99314586979981      8.50776156295060
  H   8.66146945462618      7.33612636255046      9.65264937241111
