98
Coordinates from ORCA-job QUNHIS-OH_1_3_tpss_d4_lanl2dz_631gpol_Mn2.opt
  Mn  8.89718211881359      5.65836799328262      7.89770520797348
  O   9.50997173805391      7.05805668550460      8.88858852638164
  N   7.00042411817799      6.04344725168925      8.48224039370122
  C   6.06239260023759      5.07576369809515      8.60450557606298
  H   6.39765270924623      4.06377746022288      8.40012754169456
  C   4.74171840234348      5.35263644099280      8.95491175557348
  H   4.04587775582708      4.52228277905351      9.03109118658843
  C   4.32916187116000      6.67385488579376      9.19800804348608
  C   5.32407479888977      7.66537043662696      9.07088194862234
  H   5.09063009820617      8.71352925721908      9.24408981359820
  C   6.62455758107904      7.32632541830224      8.71859467811366
  H   7.41908433101104      8.06150198816013      8.62901831843414
  C   2.89674380185586      7.05245542722239      9.57833094659724
  C   1.97232116669369      5.82130942029925      9.65982342234341
  H   0.95947194153806      6.14333663637101      9.93297110342303
  H   2.31061384060486      5.10747832480549     10.42386295808340
  H   1.90544335803395      5.29768693035345      8.69613476518335
  C   2.91547727426099      7.75749181836232     10.95949816222640
  H   1.89424373447988      8.04827325954764     11.23934323435303
  H   3.53216751351369      8.66599371255673     10.94478486372811
  H   3.30779220477098      7.08856887438739     11.73716841472826
  C   2.33838761539206      8.02761099927098      8.50890052689654
  H   1.31314406301565      8.31843203627322      8.77369582318973
  H   2.31700425431012      7.55396783022579      7.51839019332309
  H   2.94122502591341      8.94262914947351      8.43927382240794
  N   9.14657534539475      4.38227839573898      9.45203444159075
  C   8.63869483512765      4.64702243962671     10.67956068120631
  H   8.10080599055582      5.58715972500683     10.78042774841241
  C   8.76460733923641      3.77247133037839     11.75682426039653
  H   8.33014580732497      4.06060788037200     12.70959628187858
  C   9.42785036779419      2.54283994821686     11.60061442228393
  C   9.94302101382579      2.27943179556925     10.31528365939137
  H   10.46442062773118      1.34940760428102     10.10225830398782
  C   9.79463177260883      3.20074065038791      9.28630157220483
  H   10.18220707083700      3.00472240619933      8.29219333376810
  C   9.59383393685767      1.52623175982254     12.73027179559976
  C   8.96101169123963      2.01344412974133     14.04874749693764
  H   9.10686304789436      1.25184639109776     14.82502879238846
  H   7.87932826213664      2.17761894964087     13.94491173714797
  H   9.42546746405069      2.94353007597222     14.40516791675831
  C   11.10835715465941      1.28214576989166     12.96144061432664
  H   11.24465113411721      0.54333417505124     13.76213987936278
  H   11.61500608182560      2.20984030513373     13.25946764523163
  H   11.60031875975015      0.89586971590715     12.05913126538804
  C   8.91329116378705      0.19742907361871     12.30888795031456
  H   9.03652348471039     -0.54760140661618     13.10605412086102
  H   9.35348210441894     -0.21449521698113     11.39138359743158
  H   7.83860517860123      0.34335076501181     12.13713700950666
  N   8.26298218817396      4.17968303345989      6.84500627245703
  S   8.11873147434939      1.51378149054840      5.94712779631593
  C   8.20051670994462      3.03939201519825      6.46294615479833
  N   10.77831786971211      5.29543366757318      7.23342928650995
  C   11.85072075513569      5.50316487767730      8.03078800669566
  H   11.62826759346229      5.90091061841635      9.01551579712213
  C   13.15738605735184      5.25172187794508      7.61715153063976
  H   13.96553551537878      5.43886044613880      8.31824548898076
  C   13.41464750921916      4.76806523518186      6.32254222135192
  C   12.28623585729393      4.57701898316361      5.49985276386754
  H   12.39264004053152      4.21362133598891      4.48035198767488
  C   11.00806631056725      4.84528820695453      5.97376539552206
  H   10.12699320751746      4.69599175209031      5.35842014559879
  C   14.81930509093589      4.45902441173528      5.80283888506284
  C   15.90337103253496      4.72280141647275      6.86695738430590
  H   16.88918754677224      4.48029433392497      6.45056774957412
  H   15.92338335175626      5.77726535461064      7.17582207719426
  H   15.75647905871960      4.09851745225428      7.75933402045123
  C   15.10362030743864      5.35086533993146      4.56613142478950
  H   16.10574099627256      5.13012453621684      4.17546678511545
  H   14.37999266396527      5.17124266845127      3.76016977807207
  H   15.06464498722798      6.41558504536452      4.83240404846297
  C   14.87911431033609      2.96524234286560      5.38788342088294
  H   15.87854934840497      2.72978608411569      4.99869597283697
  H   14.68135003517309      2.31097408399489      6.24737100064889
  H   14.14737908118545      2.73126802643245      4.60377108083441
  N   8.65018310990853      6.93568151932001      6.36422467565378
  C   7.68614485193937      6.75837217917171      5.43208595492942
  H   7.05570912107639      5.88438714702967      5.56853157647643
  C   7.52120621840060      7.62814227331897      4.35559545878907
  H   6.72726579274114      7.42208152761960      3.64387452019349
  C   8.36493339538502      8.74199669727627      4.20275016910725
  C   9.35693029171428      8.90883057809318      5.19025518545689
  H   10.05041544272748      9.74583332213202      5.14877252293750
  C   9.47417882815132      8.00525446271901      6.23908296264783
  H   10.21411047800569      8.11455948468993      7.02622514994075
  C   8.24539430061304      9.73482638238579      3.04520425672027
  C   7.08664283072951      9.38056702444404      2.09189009717897
  H   7.03866061622771     10.12213528454683      1.28439218976339
  H   7.22693600803510      8.39436186222850      1.62795882396187
  H   6.11712338043562      9.38989571787188      2.60920285912991
  C   8.00052590375479     11.15299362014919      3.62372383248149
  H   7.92946781215823     11.87886457910256      2.80286639917061
  H   7.06391228798546     11.18789505338943      4.19609944549835
  H   8.81840088899841     11.47012345601555      4.28395252370469
  C   9.57336677029308      9.72737140162210      2.24330127024529
  H   9.50828023516502     10.44585487484000      1.41548081686014
  H   10.42803840990567     10.01191432780201      2.87112251666403
  H   9.77218820677215      8.73300465943606      1.82178181516903
  H   9.61760236759941      6.82809255092623      9.83366274846228
