96
Coordinates from ORCA-job QUNHIS_1_4_tpss_d4_lanl2dz_631gpol_Mn2.opt
  Mn  8.78372398258445      5.32362308519550      7.53077885793650
  N   6.98837602509226      5.90787053946387      8.24300766794646
  C   6.08001443936348      4.96082200756467      8.59158223387436
  H   6.39863447084910      3.92724705401524      8.48565416619448
  C   4.80173677385401      5.27623215232698      9.04533075733630
  H   4.12890783726488      4.45834587267339      9.28511425381590
  C   4.40222489785499      6.61636789887263      9.18911710497717
  C   5.36358310479785      7.58819774744831      8.84108462025621
  H   5.13902293393748      8.64929973961342      8.92281778481774
  C   6.61422179934553      7.20922611286775      8.37063410883072
  H   7.35372593000831      7.94901998296672      8.07393608267753
  C   3.01717095020621      7.03322351456126      9.68520035438688
  C   2.12779048534963      5.81630893042834     10.01018727874250
  H   1.14844366186590      6.16445634041966     10.36193500755793
  H   2.56470772340067      5.19457487176039     10.80388414040146
  H   1.95924965766726      5.18771282042267      9.12509333679280
  C   3.17976751975424      7.89038605582710     10.96790171879748
  H   2.19219156950554      8.21021575948116     11.32579426025777
  H   3.77872561951312      8.79209325544955     10.78353797995744
  H   3.66444030103928      7.31327911020476     11.76674964123439
  C   2.32629439363310      7.87766550624394      8.58249580157838
  H   1.33215289941783      8.19194643244150      8.92693558703475
  H   2.20278096126537      7.29334132527652      7.66107170045566
  H   2.90102483476798      8.78199735009601      8.34153648795002
  N   9.05795090792257      4.23720882757670      9.20470859774466
  C   8.75853000010402      4.68199928795490     10.45139421776651
  H   8.39115795950932      5.70351530735825     10.51731421210284
  C   8.89466950472912      3.88993543551276     11.58879790059869
  H   8.64070899571592      4.32158559824487     12.55255050820664
  C   9.33279876646774      2.55758857610546     11.48093355368592
  C   9.63960735225992      2.11112822539141     10.17953453324355
  H   9.97949772978543      1.09384678930061     10.00227755193951
  C   9.50872824800922      2.95869555296261      9.08807044627561
  H   9.74214019127407      2.63165139669243      8.07947136287767
  C   9.46596157896652      1.61601759130666     12.67835703695687
  C   9.11187096468534      2.31297625192884     14.00722447708704
  H   9.22198749079815      1.59944587903937     14.83348270042256
  H   8.07278540196611      2.67067534750559     14.01470974729371
  H   9.77782304459994      3.16325687516022     14.21097365907801
  C   10.92708813884313      1.10187939985326     12.75701705068556
  H   11.03191342281909      0.41780430887512     13.60943809716009
  H   11.62959862988869      1.93464320496178     12.89591762659893
  H   11.21618328480252      0.55525518404100     11.84991249012943
  C   8.50492023198812      0.41605270491104     12.46953864751329
  H   8.59408466862068     -0.27964339901889     13.31463429146872
  H   8.73712160000108     -0.13680701573282     11.54998829937644
  H   7.46186362926398      0.75388906789033     12.40978395123825
  N   8.11282028141099      3.82553475182072      6.34264840040682
  S   6.80248274353703      1.38713282111950      6.91957685696847
  C   7.54437718519988      2.78230088518470      6.56182401860385
  N   10.73395445071863      5.10844350664856      7.10800072796620
  C   11.72520608814584      5.34725758797022      8.00182662945033
  H   11.40637457928781      5.65579045830149      8.99520496774391
  C   13.07501093726925      5.19716455209711      7.69036455876757
  H   13.81057196611605      5.41250657601642      8.46003251778626
  C   13.46572279713540      4.76145696641212      6.41190950181310
  C   12.42097874397153      4.50886489618649      5.49771658530094
  H   12.63615824953566      4.16421187414392      4.48898082387766
  C   11.09447985321792      4.69552632581102      5.86272015152750
  H   10.27060585649657      4.50079624111032      5.18144542815173
  C   14.92466693827350      4.55353902992698      6.00293877610908
  C   15.90148324280905      4.88404580722984      7.14896922851090
  H   16.93167046393658      4.72093934729440      6.80829051743262
  H   15.81877389000853      5.93335211696992      7.46537035518455
  H   15.73517525057792      4.23959083656812      8.02346542001197
  C   15.24219503550726      5.47145742414915      4.79367495086165
  H   16.28279457220213      5.31924912442760      4.47806771396380
  H   14.59429547096310      5.25156114748182      3.93495721622349
  H   15.11420354832905      6.52943249077878      5.05917759702572
  C   15.11959155662285      3.07054260005857      5.59146980393749
  H   16.16209794083055      2.90568448849427      5.28850494820919
  H   14.89416355319389      2.39785425750293      6.42956066674594
  H   14.47528166573768      2.79388126244806      4.74659719994153
  N   8.67245494690568      6.76008380633603      6.12667428402874
  C   7.70090570388456      6.67794257808732      5.18276089639052
  H   7.05800764361407      5.80459607179680      5.25354571897689
  C   7.55128156304019      7.63000588365637      4.17724402948802
  H   6.75598726105310      7.48903736860364      3.45121737617386
  C   8.40669260899948      8.74414771365132      4.11096485690605
  C   9.40811188669427      8.81517349892736      5.10185229845921
  H   10.11634932753996      9.64047233351789      5.12099082245302
  C   9.51803663639876      7.82296875100456      6.06810576153172
  H   10.30009541911834      7.85193491159901      6.82406939522164
  C   8.29250204200640      9.83105784268976      3.04061944933442
  C   7.13736431128804      9.55893371894316      2.05637394602796
  H   7.09696450611994     10.36458780098657      1.31257804373115
  H   7.27784240848254      8.61328108790837      1.51486278355710
  H   6.16502160443157      9.52941089727282      2.56750103049142
  C   8.04581501396422     11.19523799088633      3.73664080976565
  H   7.98186918838784     11.98935182575883      2.98101794452377
  H   7.10498244772248     11.18329464517275      4.30310875173589
  H   8.85964222236560     11.45294585684328      4.42737444424893
  C   9.62266660883746      9.89150804268539      2.24460289438887
  H   9.55941458368708     10.67690984776844      1.47984099859734
  H   10.47600704146516     10.12352637350262      2.89557281459631
  H   9.82334364759734      8.93621991280412      1.74177319358616
