40
Coordinates from ORCA-job COKYEJ-oxo_1_4_tpss_d4_lanl2dz_631gpol_Mn2.opt
  Mn  2.88683713661429      3.64455089166804      7.41965574351379
  O   3.29031842033991      1.75426425947763      7.39452208432763
  O   1.51159863419227      3.27197066021628      8.90003520536139
  O   2.61357412009570      3.83348522189470     10.81121688555996
  O   -0.25356697823024      5.35506591531257     14.59497845285414
  O   -2.17370340928863      6.35073890591163     14.13874111232722
  O   -3.88815429806189      6.24537958349572      9.52615166701196
  O   -2.37266853478984      5.92148972905320      7.95898567374894
  N   4.35660717235983      3.66981716899802      8.79832380636631
  N   4.98587631196154      2.38593173088737      8.79244199870383
  N   4.64381783458494      0.13211230325104      8.24666420195183
  N   -1.15486841025880      5.71897877560063     13.82773709030497
  N   -2.77083721516080      5.88936159726375      9.15465032975862
  C   4.27593513916384      1.41972058660065      8.12794032846881
  C   1.57523367165904      3.74889367990721     10.10512097631767
  C   0.29491162377787      4.33494941008723     10.63820206252651
  C   0.16020078852778      4.69304329497514     11.98907469444240
  H   0.94093747702474      4.46546068279587     12.70870400496603
  C   -0.99830296068562      5.36137714186717     12.39219760995717
  C   -2.00455324831301      5.74851926701103     11.50501369471613
  H   -2.87278294203524      6.30346973426406     11.84633667759100
  C   -1.81249772390077      5.40999310058355     10.16405673975253
  C   -0.71203558453733      4.67293968627445      9.72754570899215
  H   -0.62706114774972      4.37620105855039      8.68972717861422
  H   5.06105450770648      4.38191413281621      8.57438627894591
  H   3.84386635924967      3.81921562868762      9.72713279120575
  H   5.49141959036301      2.14878433951285      9.64596003755733
  H   5.53066125633794     -0.13840856669678      8.65921390349680
  H   4.18433632267732     -0.54248109819081      7.64271500618188
  O   2.27031528511270      5.48339736037983      7.62395964546836
  O   3.87681136121439      3.99082738399630      6.13499115282716
  N   1.20518714740392      3.53462479741702      6.23601349019798
  N   0.42915762458214      4.68877174683877      6.51883127122596
  N   0.40405481121979      6.81216541051774      7.46023004062373
  C   1.07933976487899      5.67707644015268      7.21977228524349
  H   0.67361477499175      2.69748387314204      6.50488753623545
  H   1.48281680770630      3.49920294582326      5.24660525645292
  H   -0.37247526857073      4.89289983824427      5.92447097597097
  H   -0.62119455658529      6.78178045375474      7.49297436206980
  H   0.87331833442164      7.50223092765628      8.03953203816013
