45
Coordinates from ORCA-job COKYEJ-CH3OH_1_4_tpss_d4_lanl2dz_631gpol_Mn2.opt
  Mn  2.78246452451704      3.50263157493429      7.70356109083203
  O   3.44474081635793      1.63173500015985      7.42063768108415
  O   1.36256907150409      3.03529963892240      9.23711993260466
  O   2.44765614167050      3.63766511129240     11.14411762424250
  O   -0.47421441172195      5.51920670716365     14.75359659878594
  O   -2.36326249082451      6.51647798760622     14.18790885567161
  O   -3.94064658281915      6.20042165926538      9.53661168263481
  O   -2.40824713888418      5.70186243115601      8.03267539889134
  N   4.25164661789615      3.47127138657554      9.12249042588598
  N   4.89726337779436      2.17923468519054      9.12099033923369
  N   4.67912152944990     -0.02677950279754      8.37925788782353
  N   -1.34727316809566      5.85159218946235     13.94037542150282
  N   -2.82949989315102      5.77550731653543      9.22134151599858
  C   4.29977593565543      1.26382224028972      8.28475057336154
  C   1.42381199274408      3.57375892002710     10.41139926308056
  C   0.16498872421793      4.26131357046645     10.87853522289174
  C   -0.00075703628924      4.69851467809263     12.20219060307942
  H   0.75396983016949      4.49327533758887     12.95552600456411
  C   -1.15747713315698      5.41092892666284     12.53288486581480
  C   -2.13305194181017      5.76467280119452     11.59874949708594
  H   -3.00091336328381      6.35009276064723     11.88490319544746
  C   -1.90991599012569      5.34798939027543     10.28390631628896
  C   -0.80914632762007      4.57129187076308      9.92621864786187
  H   -0.69357907748392      4.21539991711683      8.91195587659826
  H   4.98972038312995      4.18239157479054      9.09181397367348
  H   3.68042146191277      3.56219227099863     10.02099851846878
  H   5.22028736623101      1.86452778924403     10.03626817693937
  H   5.46396955661371     -0.33204947556258      8.94434238196702
  H   4.28717522290556     -0.68249646167825      7.71178477786303
  O   2.23454998416239      5.44659239525124      7.80408804802966
  O   3.90691511345596      4.18513241513092      5.82279742696973
  N   1.02717164897684      3.40587425311333      6.60632600902006
  N   0.38448085644697      4.68663713488505      6.66075259652029
  N   0.35366100313119      6.75252063933062      7.72229684173171
  C   1.03035147352883      5.62368464448279      7.43932932773556
  H   0.48320262011630      2.72424829574385      7.15173083771228
  H   1.08229130012131      3.11318081206015      5.62572276927371
  H   -0.63407064703647      4.70778989952445      6.58687872034597
  H   -0.66696767043767      6.76358686832577      7.67853686438204
  H   0.81664185122164      7.42184728949151      8.32841852928200
  C   4.99482026931358      3.52992769279036      5.12147236866438
  H   4.99381467633911      3.81734530598690      4.06320204026878
  H   5.96290662156045      3.77404996390612      5.57827232076133
  H   4.79900988539933      2.45976406327451      5.21712663819554
  H   4.02985301619655      5.15486603031853      5.78868631092832
