41
Coordinates from ORCA-job COKYEJ-OH_1_5_tpss_d4_lanl2dz_631gpol_Mn2.opt
  Mn  2.97802470991645      3.89478409954246      7.44976542410238
  O   3.25541724430172      1.81502955502686      7.36168764028375
  O   1.71415023802834      3.70221555582450      8.88908004391465
  O   2.76427447864743      4.02891073458892     10.88953921776275
  O   -0.25345857315190      5.38670344262424     14.65427230816133
  O   -2.28892308015644      6.12536827844306     14.20846703995736
  O   -3.92924400700485      6.00725662932321      9.59186544035293
  O   -2.45949750900181      5.62774965142300      7.99499929142275
  N   4.61358104364916      3.55199948703423      8.88643168422623
  N   5.01969990609474      2.19674212058249      8.79340819606132
  N   4.46905605162729      0.03655015658600      8.11985651028734
  N   -1.19330780973698      5.64404186871976     13.89032911832671
  N   -2.80832907664958      5.68025457801434      9.20437297119216
  C   4.20232205119850      1.36315259939567      8.05802093895092
  C   1.75787308573658      4.04469459390446     10.15918189654871
  C   0.43309896580537      4.52572774716585     10.68404811089867
  C   0.24606559291071      4.82025993019332     12.04334898485780
  H   1.03715739279981      4.65187992787945     12.76830735844064
  C   -0.98472074979374      5.34475673863331     12.44739385271546
  C   -2.02664319584145      5.62592455109155     11.56124738710947
  H   -2.96026306886848      6.05604150004263     11.91003920464304
  C   -1.78981235918648      5.34176516370099     10.21415562311323
  C   -0.59801823172268      4.77367043102471      9.77273401201456
  H   -0.46176023475225      4.53477293566943      8.72804608169137
  H   5.42428705430215      4.14885416355752      8.69814749632808
  H   4.17345680793491      3.74658201820946      9.81561901662892
  H   5.51150959706317      1.82075629434746      9.60281890884302
  H   5.36360460277234     -0.30645240872446      8.45665828392864
  H   3.97520900387717     -0.55532928400675      7.45959855811751
  O   2.17373969350565      5.74207033179514      7.11364305559827
  O   4.12490530491862      4.13510582762782      6.10044571863909
  N   1.02855426840316      3.48261596895376      6.27610107138711
  N   0.27234134016041      4.66920034678864      6.39100823244957
  N   0.17186651368556      6.84503124063963      7.19606706889185
  C   0.91610936407801      5.75866532948528      6.92797979021715
  H   0.58992936895392      2.72805129844885      6.81369924923441
  H   1.10972315584284      3.21160199287141      5.29138491687190
  H   -0.74605192308491      4.62762839305241      6.35281792314305
  H   -0.84526101509173      6.78908123756583      7.25558592961215
  H   0.64209923481185      7.65183312604031      7.59142749821046
  H   4.00445476301727      5.01919184691277      5.69020894486235
