45
Coordinates from ORCA-job COKYEJ-CH3OH_1_2_tpss_d4_lanl2dz_631gpol_Mn2.opt
  Mn  2.73595587427855      3.54722326184999      7.54752932525128
  O   3.24710493278960      1.61676220990623      7.46702683341951
  O   1.44934079317317      3.28162292119305      9.01769640932099
  O   2.58694211136310      3.79201349153727     10.93329000338557
  O   -0.33166233734064      5.24191155601812     14.75365465049694
  O   -2.26774881790702      6.20607675414207     14.30081238128244
  O   -3.94085162278216      6.16733812833558      9.67237484818706
  O   -2.44995938358093      5.76288228535547      8.09945163727918
  N   4.29371285536303      3.57911467736391      8.85215479074615
  N   4.83458150419076      2.24666238462176      9.00547520254221
  N   4.38829302250372     -0.01147627801656      8.58758327263714
  N   -1.23587557268092      5.59734652979301     13.98523779286038
  N   -2.83332273254567      5.77753121959928      9.30219150717859
  C   4.11135430040187      1.28544569423952      8.32892335021834
  C   1.54177267397475      3.71932503358229     10.24002745521001
  C   0.25673164317440      4.27872973565892     10.78837724500875
  C   0.10769589630537      4.61642440572304     12.14310773694710
  H   0.88774382961346      4.39321366621420     12.86473568081245
  C   -1.06591636333747      5.26035221344596     12.54664484413994
  C   -2.07759598235069      5.63978902027706     11.66186518019458
  H   -2.95645860438635      6.17469775696687     12.00713380705893
  C   -1.87438569087405      5.31818828148782     10.31742591805617
  C   -0.75441091181450      4.61353374933503      9.88302364517690
  H   -0.64856625996957      4.34565106706918      8.84178234187485
  H   5.08869376821334      4.20743530756826      8.69195184381721
  H   3.80385016582522      3.81924647139294      9.75993539767172
  H   5.13884132964603      2.02879288500436      9.95523521771866
  H   5.20771822980276     -0.29864129928681      9.11172259412476
  H   3.91943841169014     -0.71071427010517      8.02150130293966
  O   2.22899385312894      5.50495968411781      7.56357993437712
  O   3.78658552158219      3.98762588211066      5.85127486161694
  N   0.97356918574133      3.44247710873306      6.49426506661137
  N   0.31944637296373      4.71620971392109      6.56364214458162
  N   0.32996460420344      6.79351591373055      7.60789895592175
  C   1.00145214774735      5.67070101654228      7.28740764797646
  H   0.43281661196523      2.75512031210182      7.03571958678847
  H   1.01330514479428      3.15340413175437      5.51060349835777
  H   -0.70086008105261      4.73125795001213      6.53221995062690
  H   -0.69124216897816      6.79508610301383      7.63394148784169
  H   0.82527093412984      7.47778181077308      8.16995061618566
  C   5.12913133459737      3.50579727193568      5.55741511064537
  H   5.39577748182630      3.78423157140716      4.53260098205064
  H   5.85812702277889      3.91533549357224      6.26762440437043
  H   5.07389265119882      2.42060303083797      5.65217449876478
  H   3.74098232063368      4.95821414516335      5.72435903772504
