126
Coordinates from ORCA-job ADEGIB_0_3_tpss_d4_lanl2dz_631gpol_Co3.opt
  Co  15.81135192117223      9.35037161254832      9.20263603486281
  O   16.98039329759147      8.51787253066401     10.41422155786690
  C   18.11757225482337      8.98979039957027     10.86090837820858
  C   18.86512895675658      8.16890417058964     11.78065281474558
  C   20.07876532045200      8.65162775115645     12.25093389847651
  H   20.64043270960775      8.02840892849419     12.94302493110286
  C   20.64391473733755      9.90716710365877     11.89165586700007
  C   19.91736065840028     10.69071015758560     11.01741457866865
  H   20.29032271597276     11.66543088971931     10.70499804421819
  C   18.66199099391792     10.27454928079970     10.48659206601409
  C   18.03109850827713     11.19651348274487      9.60006824494545
  H   18.59000287162826     12.12401873563786      9.42900620555167
  N   16.87621337669850     11.02952822004226      8.99426465547952
  C   16.30204854139700     11.98272327385947      8.13845437735776
  C   16.83194544014104     13.25687870123789      7.84732134953899
  H   17.76379266342405     13.57836649953562      8.30656931599949
  C   16.16589867716946     14.11759477782363      6.97490448305829
  H   16.58947889414648     15.09760308479215      6.76213002212743
  C   14.95910340352148     13.72912476164349      6.37533420407347
  H   14.44019226430747     14.40081042859860      5.69446157570089
  C   14.42173173776027     12.47100088746349      6.66287639779936
  H   13.48175825584572     12.16368027546068      6.20781503143603
  C   15.08344455189547     11.60645396417582      7.53783372427882
  N   14.52411075508118     10.28645193284944      7.86605326558118
  C   14.38390415863021      9.44784044226061      6.61686245925888
  H   14.01265560179419      8.47245829735850      6.96038606303790
  H   13.62492351111130      9.90693010504093      5.96536412332054
  C   15.69183855734996      9.32276933666657      5.90671740139088
  C   15.90345409629207      9.85508336215618      4.63853589745352
  H   15.09240835271819     10.40316545906357      4.15687063776997
  C   17.14059008954170      9.69760300482103      3.99287411765628
  C   18.12015934783540      8.93769880737057      4.65623906492217
  H   19.06726414282963      8.77129237166048      4.15254178115100
  C   17.95527003948835      8.38494128471153      5.93793501536089
  C   16.72065382901671      8.64398823999973      6.60230050210987
  O   16.47628590976836      8.22761610054268      7.85591665433266
  C   13.15957425497451     10.43647900757232      8.50250981128667
  H   12.45471359847335     10.81572524006691      7.74695153463977
  H   12.85825155749545      9.41953141308550      8.78867431150843
  C   13.22785478809685     11.35199551557840      9.68046744066119
  C   12.58766190361163     12.58705849726326      9.70073933537717
  H   12.02012560315519     12.89970249954034      8.82327200356273
  C   12.68326619027146     13.42535205541996     10.82346020192880
  C   13.39949070718958     12.93725515754696     11.93089963582737
  H   13.45126731230877     13.55591898168945     12.82128960007320
  C   14.06750726665483     11.70099695754171     11.95575540361273
  C   14.02387030684122     10.91559453270103     10.76658922381112
  O   14.68052368981671      9.75016884233473     10.64672130130883
  C   18.31510382579379      6.79913367548500     12.20827761631695
  C   18.16545536246208      5.88042894381540     10.96695275384907
  H   17.46662929889940      6.30461261735671     10.24054280680129
  H   17.79526045933945      4.89278763720335     11.28014861304179
  H   19.13748387829912      5.74031696876332     10.47290719438295
  C   19.25861519615317      6.08917640477600     13.20281816813960
  H   20.24860232556707      5.89470197716088     12.76510744845057
  H   18.82164749784636      5.11988112499160     13.47917624834628
  H   19.39372312972289      6.66947677927124     14.12723483750018
  C   16.94277347097528      6.97434826267044     12.91009587662254
  H   17.04555829728444      7.61055527034136     13.80070440274213
  H   16.56494233333839      5.99262837775894     13.23256733759403
  H   16.20961876988324      7.43138332628121     12.23997940083134
  C   21.99987255460795     10.31867466522162     12.47725797387618
  C   21.89948490554893     10.36284084403512     14.02283236828835
  H   22.86820374186978     10.64402114159259     14.46125585496006
  H   21.61299674222833      9.38637784903232     14.43597099272820
  H   21.14782521907744     11.09790200332401     14.34149762000207
  C   23.07191871225230      9.27971886422346     12.06232360434547
  H   23.16941229631333      9.23839942182759     10.96889928094427
  H   22.81469276801451      8.27244690452241     12.41651942395018
  H   24.05007172558263      9.54772622072598     12.48811130790826
  C   22.44824176477221     11.70637043891359     11.97852429844307
  H   22.55907112255878     11.72546171485592     10.88508151382091
  H   23.42204389765104     11.96073957549494     12.41909797273759
  H   21.73364051589065     12.48957691149153     12.26872435359776
  C   17.37452732895763     10.35706391375732      2.62730525332170
  C   17.21080205389890     11.89140502015869      2.78189769693263
  H   17.34647153887907     12.39321112688870      1.81212805317116
  H   17.95246875153020     12.29099361025342      3.48709223555136
  H   16.21423385931773     12.15071924457937      3.16395990770533
  C   16.33188720789142      9.83181288010451      1.60918406723146
  H   16.47970576401547     10.30852353331953      0.62894365582099
  H   15.30563947101465     10.04624173639151      1.93667749340145
  H   16.42589066961323      8.74465635653259      1.48273345197699
  C   18.78296175268707     10.07220230530040      2.06870310800681
  H   18.94661788326952      8.99656644307408      1.91326695492922
  H   19.56779277688576     10.44670054608941      2.74066545944722
  H   18.90411951141178     10.57352227408615      1.09823048245142
  C   19.04387116631726      7.51724137502609      6.58365616184877
  C   19.54957680302048      8.19333943696964      7.87835448341893
  H   20.32482980492941      7.57487932213681      8.35472865260852
  H   18.72514854969683      8.31605967212460      8.58106482523550
  H   19.98084784396752      9.18115634732575      7.66298767744919
  C   20.24991422219180      7.29695691284832      5.64763343940095
  H   20.76016765630360      8.24041851738340      5.40495618218906
  H   19.95721296879497      6.80883797363260      4.70691754860870
  H   20.97826906926646      6.64593297009691      6.15083045248520
  C   18.44577780420691      6.12850532311846      6.92948337917437
  H   18.09865919213108      5.61926462646884      6.01899860888901
  H   17.60144686138061      6.23192439950460      7.61895064657669
  H   19.21233786368838      5.49843352434146      7.40465860042136
  C   12.04287007185949     14.81892304830063     10.78922524984931
  C   12.69516011315518     15.63557054692307      9.64341373059588
  H   12.24786608359342     16.63911396620195      9.58374705637955
  H   12.55920491358210     15.14215318514492      8.67150943496836
  H   13.77506715405417     15.74565569121115      9.81279682029415
  C   10.52221628430993     14.69084818500883     10.52485474285498
  H   10.03728991586060     14.10986347755607     11.32107127008119
  H   10.31946152522285     14.18925395439053      9.56883079150816
  H   10.05455484825488     15.68590977971689     10.48882413874580
  C   12.24313527124452     15.58970592769623     12.10933675580874
  H   11.77520391021384     16.58124833736430     12.03381404685975
  H   13.30895380507583     15.73760480513698     12.33244981524794
  H   11.78262248726161     15.06513676590011     12.95818329074871
  C   14.79655672881202     11.20832826288991     13.21281774646635
  C   16.30291296190178     11.04619409652183     12.90763813304833
  H   16.44599219156740     10.32678221152908     12.10106842754401
  H   16.83674362803637     10.68226776965400     13.79824415787629
  H   16.74730229568937     12.00608306341882     12.60827882418715
  C   14.20695893579557      9.83928354223162     13.63970088957588
  H   13.14184685265717      9.93940816609623     13.89323482120962
  H   14.73819250958617      9.46417122380392     14.52693513092736
  H   14.30993054567400      9.10455796148741     12.83434138148890
  C   14.64587287375652     12.18384218538642     14.39835460994553
  H   15.09244527161042     13.16506158456301     14.18158665641718
  H   15.16685468003483     11.76775433070787     15.27184372129141
  H   13.59294763139500     12.33497325586197     14.67677606214723
