127
Coordinates from ORCA-job ADEGIB-oxo_0_5_tpss_d4_lanl2dz_631gpol_Co3.opt
  Co  15.76407761451735      9.07738208219214      9.31436521758957
  O   16.96603688724425      8.23955196717541     10.58685636770108
  C   18.08996849324534      8.65990034627601     11.06289066068742
  C   18.81987212926028      7.80352503726232     11.97456593432456
  C   20.03340330298365      8.26147905079166     12.45923657257421
  H   20.58704129736862      7.61654819128161     13.13826704681320
  C   20.61816457902812      9.52430983025853     12.13222793703641
  C   19.91037682908652     10.34341263505750     11.27762476514167
  H   20.29595723687991     11.32121926845824     10.99231330551597
  C   18.65365800576141      9.94763336554940     10.73229442077808
  C   18.01026737451367     10.86590171315340      9.87050649489564
  H   18.55698331492524     11.79744912463273      9.70563083857819
  N   16.85386740666142     10.71583308116445      9.24824946473271
  C   16.34666033674021     11.73460142428524      8.41268145022515
  C   16.90755101227791     13.01827903559582      8.23851428605084
  H   17.79154448284355     13.32072614625749      8.79373793288880
  C   16.32481760568254     13.92402503338168      7.35241163495893
  H   16.77147608077436     14.90911307365165      7.22918505322737
  C   15.17605559268942     13.57938638688375      6.62370574471660
  H   14.73021610744512     14.28910946689775      5.92989369886756
  C   14.60003471260927     12.32019109562205      6.80763373776629
  H   13.69854783001986     12.04247905719238      6.26451168267151
  C   15.17811955477744     11.41633473387797      7.70139484555079
  N   14.57976024451428     10.11373730355503      7.97521193322122
  C   14.48416846840556      9.26318941709701      6.73334672541500
  H   14.23599755806827      8.25606287700967      7.09383051365774
  H   13.65426581398758      9.63505940026952      6.11071558001825
  C   15.76575460985446      9.29179044454998      5.95234063538678
  C   15.77725848218233      9.79055037386821      4.65465858884235
  H   14.84793678359041     10.18819376055357      4.24376934337727
  C   16.94500200801248      9.79264823141430      3.87023077224425
  C   18.11041437134240      9.23481859876656      4.43974284951852
  H   19.01248448346034      9.20734775711104      3.83677377629028
  C   18.17003514888112      8.72125958039099      5.73597767678021
  C   16.97351573832045      8.78189841148898      6.54918349423066
  O   16.99392410893849      8.36788882902898      7.78302572862715
  C   13.22940185821101     10.27478620087276      8.63979567771490
  H   12.49833041257553     10.58300418347669      7.87532221462558
  H   12.96952561693114      9.27453518256088      9.00946769829137
  C   13.29666902737011     11.29644794724567      9.73685792872651
  C   12.61794170885389     12.50449549348523      9.62239616306802
  H   12.04622241665208     12.69550154012943      8.71309823662444
  C   12.66995724871624     13.47933447288874     10.63506235289304
  C   13.39515877863665     13.16472994112847     11.80545938019919
  H   13.41851133321812     13.89809565852186     12.60549593769336
  C   14.09140600250172     11.96874159811857     11.98746184570625
  C   14.09478789129163     11.01476678061836     10.90035711128380
  O   14.80041901231902      9.92290395018577     10.97389813524302
  C   18.23619000193818      6.43910648054304     12.36408224587027
  C   18.06264296091635      5.55797495811727     11.09785110471030
  H   17.36833342309347      6.01773140892691     10.38851334097687
  H   17.67054569173105      4.57175606661170     11.38728868646475
  H   19.03048342657624      5.40797469328036     10.59807795645207
  C   19.15899539287167      5.68322439359967     13.34302783995041
  H   20.14567825973919      5.47773317484175     12.90251029868779
  H   18.69977985957972      4.71762028094393     13.59480179325247
  H   19.30495862660518      6.23764038372560     14.28173843784707
  C   16.86376658652161      6.63756985058174     13.06173907726367
  H   16.98096332987474      7.23851231068648     13.97508363170450
  H   16.45109001308722      5.65862804747760     13.34707721891484
  H   16.15182857565364      7.13910572531315     12.39956170775574
  C   21.97802706632114      9.89668835717182     12.73235553846586
  C   21.87775619614901      9.89395234560887     14.27877176805440
  H   22.84996706887006     10.15174565218389     14.72362254026301
  H   21.58222122568190      8.90865247397907     14.66342470866669
  H   21.13470180484504     10.62726821917433     14.62066165636961
  C   23.03465586892114      8.85513799273182     12.28463541825154
  H   23.13091379250184      8.84632885159799     11.19034885526234
  H   22.76338661958692      7.84134458796307     12.60819727682763
  H   24.01640659482218      9.09664414428084     12.71769960570393
  C   22.44714678663452     11.29271334733629     12.27797718718290
  H   22.56118550775210     11.34440269158308     11.18590521337140
  H   23.42317478827485     11.51986210216498     12.72835784806008
  H   21.74244354636820     12.07610119175684     12.59102441601902
  C   16.91528062614790     10.40198490650386      2.46481037239566
  C   16.55686507792755     11.90674898419788      2.58294881267663
  H   16.52257339037119     12.37119639291481      1.58629917873407
  H   17.30514760209357     12.43645708503092      3.18799281716974
  H   15.57746630446240     12.04919732210483      3.05941362923878
  C   15.83996102610225      9.68689439927030      1.60767276214597
  H   15.80125191448877     10.12890941811953      0.60131123828193
  H   14.84076007519694      9.77741759800034      2.05415542620870
  H   16.07065584608003      8.61777530021492      1.50740594615044
  C   18.27126337537092     10.27989220903583      1.74071726702723
  H   18.57115362888182      9.22973699795989      1.61892961341781
  H   19.06909028961958     10.80643239628627      2.28264254383185
  H   18.19616586421816     10.72589185862979      0.73927186429858
  C   19.45568810843976      8.10910096579684      6.30475593512688
  C   19.92514389720360      8.92461103586308      7.53679137200383
  H   20.86381914851115      8.50657853591060      7.93013400366687
  H   19.16979456191344      8.88928177773745      8.32363024990851
  H   20.10615528711607      9.97462156751476      7.26307699338874
  C   20.60113596287949      8.10130656029092      5.27139838060277
  H   20.88070967464791      9.11796726885652      4.95862071499675
  H   20.34213995601216      7.52059754812901      4.37419250537017
  H   21.48815365747212      7.63734807451649      5.72434458631339
  C   19.18782275926022      6.64169296080085      6.73559199956498
  H   18.86926029810721      6.03836353500894      5.87360721697266
  H   18.41014722013406      6.59893073492962      7.50430270844781
  H   20.11121579663141      6.20060978815748      7.13955325617593
  C   11.98064015687141     14.83147485765427     10.42151082513576
  C   12.62710183638452     15.52419813879580      9.19264800642253
  H   12.15451341696091     16.50103132808299      9.01115095701641
  H   12.51343993757375     14.91604068347522      8.28550861957047
  H   13.70185482683242     15.68111394303346      9.35678219379385
  C   10.47066649405336     14.61395928013673     10.14891597718094
  H   9.98576008406685     14.13172776897477     11.00839922832543
  H   10.30670623913873     13.97923603780530      9.26801466420843
  H   9.97449416134724     15.57854761701411      9.96706986603362
  C   12.12296140307046     15.76788501873984     11.63826410441157
  H   11.61340262386027     16.71905165252779     11.43062134937282
  H   13.17617780787847     15.99278427511409     11.85649574697280
  H   11.66827668712857     15.33316545196818     12.53932593227835
  C   14.85683411438072     11.66184256835154     13.27954230837541
  C   16.36669009084368     11.49006132738976     12.97138711737366
  H   16.52245188258554     10.64142362235340     12.30252328867621
  H   16.92268515169590     11.31346954276945     13.90412968590506
  H   16.77291356587578     12.39545815178048     12.49694009759083
  C   14.31212187281281     10.34857979405947     13.90186392737798
  H   13.24830754701717     10.45426659485098     14.15823636643564
  H   14.86556434739180     10.11717395329801     14.82415904779930
  H   14.42710513266596      9.51349161848715     13.20355838218165
  C   14.70461989848485     12.78706693769334     14.32348369646293
  H   15.12335507791617     13.73911138706078     13.96564462127052
  H   15.24897461382228     12.50679738731906     15.23585095407311
  H   13.65301575145675     12.95222736975146     14.59908596146109
  O   14.74455399950105      7.79606965631040      9.24150091485335
