127
Coordinates from ORCA-job ADEGIB-oxo_0_3_tpss_d4_lanl2dz_631gpol_Co3.opt
  Co  15.74146942245354      9.31030663060251      9.28123650227869
  O   16.81986373762516      8.43453852203248     10.57023118124109
  C   17.99476017406094      8.81584311905893     10.98469812560751
  C   18.74709020336610      7.88129339724166     11.78933219199840
  C   20.00460571915891      8.27151558831815     12.22695438251631
  H   20.57821330207290      7.56146210435613     12.81849056723641
  C   20.60758876691597      9.53430734444959     11.95577882242309
  C   19.86408093038439     10.43465279995521     11.22141390999006
  H   20.25607823635852     11.42203975066309     10.98220630693531
  C   18.56704005461907     10.11102208645093     10.72785348320416
  C   17.91076473952716     11.11376731147723      9.96708445802090
  H   18.46013616825248     12.05272646378349      9.85162366494509
  N   16.74819949916419     11.00197165656728      9.36649174854940
  C   16.22528280462966     12.01330761804681      8.54387634561525
  C   16.68907201723487     13.34117800025804      8.46323270096033
  H   17.47665134118494     13.69101245783721      9.12628372119937
  C   16.12536829287842     14.21930558559648      7.53668397791506
  H   16.49109454794449     15.24309317452468      7.48146782536351
  C   15.09872127958528     13.79568611222195      6.67939970493942
  H   14.67144324251311     14.48252597658605      5.95190125658241
  C   14.60781760089176     12.49006187001480      6.77984090048117
  H   13.79186115087821     12.16040367358475      6.13958149832144
  C   15.15892768001877     11.61911195096484      7.71987790247980
  N   14.60468804681152     10.28446051401956      7.96098902994655
  C   14.54884097589451      9.44480187384245      6.71427036951388
  H   14.22618868874387      8.45313679486364      7.06500631068910
  H   13.77418971165003      9.85452146057307      6.04878469074847
  C   15.86470953317366      9.40468162297450      6.00178572734262
  C   15.90608647741236      9.71496734658467      4.64294580031559
  H   14.98142879254837     10.03495108195685      4.15972744706090
  C   17.08823030841043      9.61510780698059      3.89581926571819
  C   18.23227930731312      9.15540150846235      4.57499125223496
  H   19.15055187452003      9.03715837527949      4.00930604970491
  C   18.26411018077625      8.84760523576089      5.93954684911272
  C   17.05200781907028      9.02151054450918      6.69776842068251
  O   17.07005342343154      8.79009438961594      8.00133467105307
  C   13.21394609513010     10.40709593594182      8.57231540855842
  H   12.53081131593567     10.75019371642311      7.78161964553742
  H   12.95273444217724      9.38696102567462      8.87809955574758
  C   13.23864572443453     11.37206315865722      9.71308166993885
  C   12.57684273199063     12.59492034580635      9.65345967890097
  H   12.01658141928247     12.84377891268604      8.75102628045733
  C   12.63027645555430     13.49813212189229     10.72765802040031
  C   13.34438231635845     13.09619006729163     11.87209416541905
  H   13.35844904099013     13.76435933462158     12.72746228509588
  C   14.05494327328696     11.89108710306819     11.97156613499176
  C   14.04327772965427     11.02422865141495     10.83131650948516
  O   14.72441713565101      9.88365524837505     10.82128259616640
  C   18.14150797633089      6.51669183579351     12.15121729411769
  C   17.83259930167007      5.70214968183846     10.86758106118703
  H   17.10166381972464      6.21627763073558     10.23654427293538
  H   17.42582528986163      4.71903235675577     11.14734148587936
  H   18.75017728781149      5.53884498264602     10.28517350504944
  C   19.10473416891068      5.67917604072449     13.01852016947309
  H   20.04675636843026      5.46096115281971     12.49417780146137
  H   18.62722832481224      4.71900909416298     13.25672021835118
  H   19.34212382566465      6.17776732544197     13.96971736847953
  C   16.83637379474526      6.72883949359192     12.96436955821348
  H   17.04304834729102      7.29187008263038     13.88592385677150
  H   16.41557376081172      5.75261139250403     13.24703661547573
  H   16.09149331144334      7.27497079432010     12.37806843500513
  C   22.02034881985809      9.82165859520848     12.47484403187298
  C   22.03516930024247      9.72108011837488     14.02068890759853
  H   23.04707767879129      9.91477067618199     14.40564019011946
  H   21.73018374940883      8.72318177010102     14.36374773802337
  H   21.34937977315586     10.45571451846313     14.46428261990109
  C   23.00151842202332      8.77844460251785     11.88321385296545
  H   23.00953870786446      8.83283672919042     10.78590583823298
  H   22.72193384058646      7.75536426501629     12.16857037016512
  H   24.02239488245368      8.96386610940187     12.24806344506923
  C   22.50610730659691     11.22827336421430     12.07302411106348
  H   22.53923726828128     11.34590988777134     10.98061330096905
  H   23.52102280094939     11.39477157146866     12.45955224994166
  H   21.85703906793067     12.01297549191774     12.48710051268250
  C   17.09432337365465     10.00370747684977      2.41233805233033
  C   16.69901383374794     11.49736181528763      2.28253477589606
  H   16.67924651786212     11.79828782429783      1.22455502391455
  H   17.41930910638234     12.13629217974857      2.81141594529220
  H   15.70425791967506     11.68680387849755      2.70862691508588
  C   16.06606097233536      9.13547833006500      1.64416174509297
  H   16.04642887458543      9.41730976945083      0.58111358137998
  H   15.05172537369120      9.26240495878366      2.04581809359960
  H   16.32661520202203      8.07079608547021      1.71501693440860
  C   18.47743477866262      9.80882391233910      1.75954086412433
  H   18.79977813602078      8.75900821039395      1.80021135710464
  H   19.24571698080641     10.42526435031716      2.24679367289046
  H   18.43022442296349     10.10454620591892      0.70232520310206
  C   19.54764851832845      8.32694182267801      6.60255160130043
  C   20.05555779508029      9.36289525848638      7.63325651418950
  H   20.96818415245879      8.99240992705280      8.12370603961116
  H   19.30179905295311      9.53924833178768      8.40178511669462
  H   20.29198664469668     10.31719246599802      7.13999083937240
  C   20.67622919467600      8.08751611544234      5.57649003871509
  H   20.98706875269305      9.01651736570629      5.07687073253365
  H   20.38287621797422      7.35911321382410      4.80708262882662
  H   21.55393669259820      7.68582241820996      6.10148818795308
  C   19.26979297205283      6.97636076297433      7.31307865861409
  H   18.94884838993836      6.21837309618213      6.58434671801769
  H   18.49215959257923      7.08102633932036      8.07487003322548
  H   20.19138860639710      6.61803011512356      7.79555202983467
  C   11.94444663192965     14.86482008973941     10.60876358113686
  C   12.58469133510591     15.63923817977077      9.42741320571339
  H   12.11294142702816     16.62681249642737      9.31413503640826
  H   12.46648386683100     15.09480982555138      8.48099168302051
  H   13.66047875134088     15.78370473215598      9.59673639204805
  C   10.43249857993061     14.67013430625527     10.33274224807343
  H   9.95439799162950     14.12446023941864     11.15747599809469
  H   10.26085435360427     14.10291977755005      9.40798855007072
  H   9.93439380625860     15.64526277250942     10.22766325508201
  C   12.09821678164679     15.71492074070580     11.88581971532400
  H   11.59585524229935     16.68240929621131     11.74707223928062
  H   13.15445927197043     15.91462996898891     12.11422450583695
  H   11.64371822102874     15.22300199559538     12.75715789973621
  C   14.76509430609777     11.47933898953494     13.26760395021721
  C   16.27533068999184     11.28127987789803     13.00498841569522
  H   16.42472213020788     10.50084644001220     12.25789305206266
  H   16.78502379189257     10.98180791454377     13.93286603986110
  H   16.73623085030687     12.21318894720733     12.64628627909919
  C   14.15996021850474     10.14265620656960     13.77224109325820
  H   13.08811638987811     10.25901692691540     13.98710759395676
  H   14.66509926477105      9.83180813991642     14.69877763443221
  H   14.28535181116560      9.35403095639354     13.02244189499276
  C   14.60064604129380     12.53098541253648     14.38367657812683
  H   15.04247566175237     13.49876887631017     14.10451881161010
  H   15.11703455449682     12.17760803490872     15.28690818707563
  H   13.54502284009710     12.69378174679655     14.64454457140501
  O   14.79878218652815      7.93337794370685      9.05270246063702
