126
Coordinates from ORCA-job ADEGIB_0_1_tpss_d4_lanl2dz_631gpol_Co3.opt
  Co  15.88069396182272      9.43913310468008      9.21920550247410
  O   16.94721120462426      8.52406677227678     10.42438086841494
  C   18.09608097874907      8.91059790406659     10.90070370474164
  C   18.80556763708704      8.03826078413254     11.80289439096266
  C   20.03607200813608      8.46574936086612     12.28038340487652
  H   20.57573005701146      7.80473777475422     12.95493212202623
  C   20.65168626937281      9.70977904325374     11.95314990683752
  C   19.95859475295221     10.54560789607205     11.10272455707723
  H   20.36590812886771     11.51334615834775     10.81407950378576
  C   18.68947662085944     10.18169255779883     10.56419435390392
  C   18.06842653023934     11.11738620816021      9.70064579069400
  H   18.61971283731794     12.04472686581689      9.53000144019218
  N   16.90886422356977     10.98345989905662      9.08504873601596
  C   16.34954917419804     11.96848364440689      8.24531624916062
  C   16.88731896650368     13.24840178313007      8.00752171988706
  H   17.80461570300852     13.56412952636949      8.49794117890760
  C   16.23420848787769     14.12532465009833      7.14022737991207
  H   16.65810292188834     15.11217528227732      6.96361271946237
  C   15.04370450427618     13.74953758792648      6.50056515089064
  H   14.54071944279129     14.43872316060941      5.82561940456194
  C   14.50026920198148     12.48434116765289      6.74320838522830
  H   13.57094260570807     12.18353637748358      6.26335564876024
  C   15.14931269832928     11.60833689073106      7.61317405003172
  N   14.61684243138734     10.28007031777839      7.93445620533997
  C   14.50376859783573      9.42747015042460      6.69116017568808
  H   14.19413902463476      8.43504819108823      7.05026577185324
  H   13.70335081440625      9.83868467827430      6.05773853933871
  C   15.79671494724686      9.36344469434968      5.94677834970026
  C   15.92224951484543      9.85071904060288      4.64815329958753
  H   15.06366548222771     10.33898221016640      4.18405095130442
  C   17.13103587871540      9.71866834384316      3.94683296056392
  C   18.17541282652212      9.03223573115175      4.59200315744231
  H   19.10317522602920      8.88513147386721      4.04796141971179
  C   18.09899554368852      8.53254717305227      5.90290776527398
  C   16.88842700948847      8.76404607758080      6.62314500073542
  O   16.73302796613624      8.38933508485298      7.89871095084633
  C   13.24847037538878     10.39405492552152      8.57685403892236
  H   12.52685064300477     10.70523641382426      7.80669647829276
  H   12.99926663675806      9.37501423525124      8.90598268631736
  C   13.27213466708173     11.35980361917584      9.71512033472511
  C   12.53304938224233     12.53972181741095      9.69770461300249
  H   11.92966137588261     12.76958885600049      8.81796583136650
  C   12.57051272613027     13.42440687572464     10.78675150514671
  C   13.34354596400077     13.04315507860937     11.89858722012224
  H   13.35732832545728     13.70161818092830     12.76153699598414
  C   14.11144667942012     11.86825201252712     11.95837106931497
  C   14.11302899175382     11.02680806840041     10.80580513955934
  O   14.85135828212323      9.91268439374542     10.73342314397106
  C   18.19632954209237      6.68631273475467     12.20176702551899
  C   17.99792047725315      5.80509175199517     10.94074864218232
  H   17.32863728218292      6.28692963243640     10.22236121434766
  H   17.56757971874597      4.83509324226501     11.23116261287603
  H   18.96175160560989      5.61781003779457     10.44691724346221
  C   19.10827611986497      5.91266864454672     13.17692175511420
  H   20.08714289320610      5.68445047656128     12.73059001693268
  H   18.62923224169679      4.95800553654849     13.43378696932356
  H   19.27230454938177      6.46584795304781     14.11320558139194
  C   16.83454494759109      6.91611456706722     12.90859959557508
  H   16.97229837782199      7.50945436653435     13.82356938796126
  H   16.39608220307533      5.94760953578497     13.19162377604145
  H   16.13270495308853      7.44333330863453     12.25578523005911
  C   22.02527535969144     10.04667893481862     12.54370015374116
  C   21.93931076569333     10.04057566521202     14.09065026094768
  H   22.92094594794276     10.27471965938398     14.52792463600365
  H   21.62529567571699      9.06066450909780     14.47474938871123
  H   21.21599678781245     10.78900737669174     14.44207690360103
  C   23.05290463357743      8.98289282151261     12.08180347537770
  H   23.13672919515283      8.97512060532941     10.98644258642006
  H   22.76131598112287      7.97460254414723     12.40536731822455
  H   24.04483135195019      9.19980350055283     12.50467904776929
  C   22.52268972203769     11.43334826198735     12.09043980874414
  H   22.62955955260301     11.48635978257012     10.99766735102176
  H   23.50711693840015     11.63731359995035     12.53368483723493
  H   21.83820657840899     12.23136178928556     12.41151539975780
  C   17.26820915752767     10.32498848892405      2.54344646645320
  C   17.06197877812988     11.85835661919853      2.64340705782258
  H   17.13082418542799     12.32408584805158      1.64878965682767
  H   17.82544849435432     12.30968661223866      3.29188593371696
  H   16.07792014197901     12.10105881724590      3.06702182906612
  C   16.18981236475426      9.72489019087061      1.60697276169075
  H   16.26280495317308     10.16911484527482      0.60316295589087
  H   15.17630564762299      9.91405359857188      1.98576449517071
  H   16.31756794929091      8.63776006867655      1.51409097839951
  C   18.65226617419531     10.05962614917679      1.91820934094296
  H   18.84410105071075      8.98355004379057      1.80371996070198
  H   19.46059750152371     10.49146249384651      2.52455562381263
  H   18.69967393764916     10.51723999511129      0.92014232111718
  C   19.25840335075574      7.74307691407631      6.52685495530600
  C   19.80181380421399      8.49877321162520      7.76091690864432
  H   20.62682330890637      7.93477728648798      8.22167672694300
  H   19.01140208587429      8.62607233541777      8.50135465300285
  H   20.18223800276499      9.49042851154497      7.47523842035723
  C   20.42302703983078      7.53109339279659      5.53788648726249
  H   20.87560764390710      8.48286403814713      5.22358549501672
  H   20.10357347787932      6.98556306129819      4.63829578793069
  H   21.20680197221725      6.93735604126926      6.02883773776271
  C   18.74287907485327      6.34796211931087      6.96446177600607
  H   18.36524964199830      5.78695227662361      6.09748148923110
  H   17.93677231581740      6.44789329174036      7.69837055470547
  H   19.56291334892610      5.76956378461112      7.41602595674489
  C   11.80575916469209     14.75288066012609     10.71519735026496
  C   12.36231483166230     15.58420231989544      9.53016899984463
  H   11.82979348974147     16.54359206433873      9.44873174631184
  H   12.24816949476551     15.04890557348339      8.57764970957415
  H   13.43216056630747     15.79066082429819      9.67131039473979
  C   10.29906066496632     14.47788363642959     10.48353310369110
  H   9.87884431548273     13.89482434466666     11.31430602374884
  H   10.12961839710132     13.91447297790097      9.55601981705526
  H   9.74340688726061     15.42448121219482     10.40917929340141
  C   11.95176936717610     15.58743133134509     12.00348277622592
  H   11.38629596635126     16.52440009136930     11.90261313976435
  H   13.00116042020805     15.84783431881428     12.20024531127919
  H   11.55994255569929     15.05093296886688     12.87887572994675
  C   14.90036400325660     11.48909334176159     13.21884205995502
  C   16.40696808741453     11.39245841548127     12.88523525284905
  H   16.57072604978486     10.63972137018053     12.11333908355393
  H   16.97808724551333     11.10763318130792     13.78158419269834
  H   16.79087997744479     12.35863949799473     12.52617797854651
  C   14.40044918294415     10.11393753065442     13.73249518489944
  H   13.33679155772981     10.16770636661805     14.00558482815156
  H   14.96982168111404      9.81749030426863     14.62624844612736
  H   14.52921196206606      9.34503516267392     12.96392096946205
  C   14.72197677104308     12.51672618570828     14.35501933307811
  H   15.09907040246492     13.51071418615373     14.07328998517614
  H   15.29126279928081     12.18163277894151     15.23329537441260
  H   13.66966712294019     12.61772643596593     14.65740759345567
