128
Coordinates from ORCA-job ADEGIB-OH_0_6_tpss_d4_lanl2dz_631gpol_Co3.opt
  Co  15.66807224300129      8.97055455394044      9.36694014011524
  O   16.95587825747125      8.40233225487245     10.66306707641582
  C   18.12626568730645      8.80842057992480     11.05822384730627
  C   18.90708059499025      7.96968814806888     11.93173420272566
  C   20.16143047633270      8.42701390145965     12.31677834893703
  H   20.76014362898282      7.79458040528936     12.96828036025153
  C   20.72135253333206      9.66916129855265     11.90968499769221
  C   19.95441729384141     10.47057795980773     11.07594741657542
  H   20.33097912226746     11.43322830050078     10.73252741348660
  C   18.66674873659027     10.07386801449728     10.63749988978157
  C   17.97840831237329     10.96982008730463      9.75999555921240
  H   18.55087510547657     11.87079912751589      9.50860359363717
  N   16.78575384386827     10.80681414644794      9.23817806646049
  C   16.24285073591344     11.80813661738792      8.40576728519263
  C   16.76006644050618     13.11529137783216      8.25987298005520
  H   17.61521194210052     13.43789421148122      8.84907710659253
  C   16.17244382972862     14.01949756131699      7.37691946273152
  H   16.58835612513047     15.02105892294706      7.28046260614070
  C   15.04934543894937     13.64855491944904      6.62167797581975
  H   14.59480514243299     14.35300149114342      5.92758132056257
  C   14.50303357642193     12.37442682944899      6.78902302665058
  H   13.61395603328910     12.08309007677461      6.23189067080955
  C   15.08132898139977     11.46700521760224      7.68274929727728
  N   14.48301642475443     10.16525347743089      7.92926578581743
  C   14.41478110972643      9.31933326083928      6.68885416832001
  H   14.12780270269811      8.32051195198833      7.04350085285556
  H   13.62601948994921      9.70860638129622      6.02235566587548
  C   15.73193661042340      9.30357629727861      5.97028984652911
  C   15.87357876141041      9.87535182262253      4.71225855091740
  H   15.00850018982567     10.36391850424549      4.26188001775185
  C   17.09901139407818      9.83807362825377      4.01976623432405
  C   18.16954445662796      9.14768263314519      4.62631181911838
  H   19.10761678045882      9.07948596245659      4.08460090847800
  C   18.08978190337623      8.54541637904210      5.88488278191592
  C   16.85142210095126      8.67627217891892      6.61364094597616
  O   16.72723832517233      8.21835557105475      7.83031756933471
  C   13.10619222967577     10.31887341444226      8.52498198070907
  H   12.41078211109719     10.67380143809353      7.74568352656355
  H   12.81793993953947      9.30462701918482      8.82773236645186
  C   13.13742709607724     11.28519537851729      9.67133772756515
  C   12.52530941987115     12.52994404974406      9.58290777679921
  H   11.99783448433721     12.78648964740341      8.66321727310723
  C   12.59717080404810     13.46036848815433     10.63567436991937
  C   13.28653592589904     13.07126742456464     11.80444329325320
  H   13.33299341342916     13.77530758271338     12.62952534145278
  C   13.92280944323310     11.83627116335337     11.95464908396375
  C   13.88001859378801     10.91883297422793     10.84285278769228
  O   14.50112391785819      9.76854442367993     10.88175652248530
  C   18.34895912504261      6.61512872393213     12.38766602546706
  C   18.09080799243717      5.71327567859748     11.15044818405882
  H   17.35735711934560      6.16377144141992     10.47548802066960
  H   17.71235433492615      4.73488235114068     11.48097903325255
  H   19.02476004310751      5.54882981144194     10.59424191290202
  C   19.33354939178448      5.87423690175773     13.31630396247106
  H   20.28560472911115      5.65196199626750     12.81248732235063
  H   18.88787067845366      4.91738328991649     13.62007506261541
  H   19.54837959905725      6.44706391005226     14.23038335846957
  C   17.02681589759683      6.83076687790999     13.17156743717329
  H   17.20206323084614      7.45590463786045     14.05884299927515
  H   16.63586703301166      5.85963720526945     13.50877215326295
  H   16.27154339343353      7.31556800094106     12.54605838825716
  C   22.12664741735410     10.05174105423643     12.38779337750875
  C   22.15276991995790     10.08738817941557     13.93692102113594
  H   23.16268229409814     10.33534174238013     14.29456781928179
  H   21.87143738926341      9.11748529917538     14.36798446052713
  H   21.45403971127899     10.84328074469096     14.32047590120266
  C   23.13723453533621      8.99101142165471     11.88157134622125
  H   23.13883063707219      8.94970704993830     10.78387854862442
  H   22.88996524055007      7.98910458628608     12.25704417126941
  H   24.15295945439347      9.23946463758522     12.22200630360576
  C   22.56395251930165     11.43297555555476     11.86170162180481
  H   22.59402035415911     11.45652258678746     10.76323582062424
  H   23.57289960553987     11.66507987539282     12.22895289917920
  H   21.88932964515866     12.22875190863441     12.20798595908842
  C   17.22541106345995     10.54173984591165      2.66425265910345
  C   16.95034281989415     12.05557164632129      2.86368337700244
  H   17.01471110099682     12.58461879651643      1.90131650462134
  H   17.68444579251130     12.49556092554935      3.55233761561706
  H   15.95074868020156     12.23021252315815      3.28387884456924
  C   16.18396830137997      9.95887669450605      1.67536535019596
  H   16.25579244050926     10.46854115304684      0.70332429570064
  H   15.15848961802549     10.08509997976328      2.04708114619410
  H   16.35694733950761      8.88584566517173      1.51708024144797
  C   18.62692022759282     10.37987723983876      2.04201231550362
  H   18.86826929328800      9.32385547328568      1.85709727224608
  H   19.40854063958469     10.80555642869598      2.68659803621178
  H   18.66374305216051     10.90608316260524      1.07809277742222
  C   19.26210850832874      7.75678690833056      6.48072996468795
  C   19.73071930217424      8.41358258568924      7.80247201417855
  H   20.58592531075094      7.85746323348125      8.21473196005996
  H   18.92104267955053      8.40476484764851      8.53309479857514
  H   20.04615382222350      9.45357129607029      7.63515019997634
  C   20.46723589845182      7.69369448283048      5.52012576894262
  H   20.87761911151973      8.69201538188365      5.30908842657989
  H   20.20628268857896      7.21693618203541      4.56433477914435
  H   21.26514145378474      7.09714408217783      5.98381174923811
  C   18.80095395582839      6.30312694038711      6.77179448014300
  H   18.48393777357057      5.80527682501675      5.84447139501582
  H   17.96622452435099      6.29488514843684      7.48012315765601
  H   19.63538195474901      5.72862788441157      7.20105831250696
  C   11.97391902614434     14.84970603781002     10.46215744914073
  C   12.67680657494514     15.56070339756324      9.27546686972390
  H   12.25143765017496     16.56415498321158      9.12456667059956
  H   12.55682079240913     14.99498071779478      8.34220987549213
  H   13.75356014215274     15.66258879718302      9.46712676744041
  C   10.46222043900062     14.71093686328017     10.15055791246677
  H   9.93743089380018     14.21889054303427     10.98066352597528
  H   10.28984243302033     14.11803409693103      9.24246735913279
  H   10.01321542646618     15.70307994026118      9.99628517873798
  C   12.13048623138728     15.73091286018514     11.71776240835335
  H   11.66638921506136     16.71078175809490     11.53889068188333
  H   13.18772206516592     15.90097429901357     11.96443222233443
  H   11.63950040002382     15.28138594497000     12.59220730724708
  C   14.66553394438540     11.45522716106897     13.24002906652670
  C   16.16449253307323     11.21885914855192     12.92295933850413
  H   16.27420286986916     10.41332916404889     12.19418596530623
  H   16.70241759957801     10.94052164732474     13.84165148289014
  H   16.62580540403803     12.13149758787445     12.51888152401427
  C   14.05767749442294     10.15394852270002     13.82736522143561
  H   12.99710840199323     10.30017272435910     14.07736366628679
  H   14.59231860012476      9.87715843321930     14.74813323459167
  H   14.14288688565813      9.33155090837965     13.11010749002264
  C   14.56735556111494     12.55557199240646     14.31610499672280
  H   15.02607247272101     13.49783218705527     13.98268370395433
  H   15.10240204383607     12.22578613427802     15.21741238741870
  H   13.52510153152975     12.75929230855878     14.60142234907559
  O   14.39549392015710      7.59463943936202      9.23695729506601
  H   13.86621909313950      7.69419454425079     10.05844765520904
