127
Coordinates from ORCA-job ADEGIB-oxo_0_1_tpss_d4_lanl2dz_631gpol_Co3.opt
  Co  15.77756217560954      9.32207132325921      9.25502551298637
  O   16.86124841169264      8.41683651367625     10.51074775994676
  C   18.01795424599689      8.81216582374668     10.95918470174803
  C   18.74737642774351      7.88919843062915     11.79990218539371
  C   19.99288597703226      8.28159822112118     12.26702109595255
  H   20.54723060366426      7.57962592728691     12.88607037027646
  C   20.60709750084222      9.53919714006276     11.99490412395825
  C   19.88864680266084     10.42829565603538     11.22392657383669
  H   20.28979975747675     11.41161728442403     10.98218375762877
  C   18.60432179893424     10.10238405269049     10.69652054706104
  C   17.97877040742954     11.10096586758385      9.90345471411716
  H   18.53976615982560     12.03403697920555      9.79177632599810
  N   16.82692805259048     10.98823922199208      9.28297751526279
  C   16.30018174924182     11.99302022338583      8.45780886901891
  C   16.79383483586875     13.30745851539580      8.32634317407825
  H   17.63202925898436     13.64400936927844      8.93181594093415
  C   16.19963171030713     14.18949427815610      7.42341908847347
  H   16.58991817685487     15.20168299910451      7.33198860357735
  C   15.11081878268052     13.78579907528733      6.63519345411379
  H   14.65767404259747     14.47658184319715      5.92722791448235
  C   14.59853753172654     12.49255702023252      6.77724253848323
  H   13.74046374717941     12.17402053847633      6.18805574699495
  C   15.18315297672366     11.61573222900608      7.69161036669020
  N   14.62438054116298     10.28515239168184      7.95415532211114
  C   14.54257220851314      9.43510926727082      6.71486812317010
  H   14.23528831004076      8.44353628586587      7.07928617337071
  H   13.75343167893193      9.83577782175111      6.06067367411165
  C   15.84639049086061      9.39887140949999      5.98243175818134
  C   15.89178920629612      9.74486515044774      4.63524462436080
  H   14.97308310572583     10.08904824855261      4.15792121709584
  C   17.07675250574365      9.64556826375326      3.88754616116663
  C   18.21417337924229      9.14737959689121      4.55202768500073
  H   19.12904521343744      9.02843966088004      3.98116885121806
  C   18.24087829277790      8.80246688989607      5.90751149977359
  C   17.02920184457540      8.98072819946326      6.66735835940467
  O   17.02909366239300      8.71780509826202      7.96044023937738
  C   13.24697278144895     10.40501579032800      8.58040289119489
  H   12.54522912192586     10.73831769227501      7.80159549105150
  H   13.00382050092833      9.38386276939719      8.89900544284954
  C   13.27976336503038     11.37848119557612      9.71436177387721
  C   12.57095444325901     12.57334218903170      9.67083364935055
  H   11.98324530083990     12.79948613850215      8.78019471277494
  C   12.60993421195454     13.48053161727810     10.74422701638280
  C   13.34986602291993     13.10352873136127     11.88180412423496
  H   13.35172236568730     13.77313834333732     12.73586152638271
  C   14.09717127077623     11.92227415476719     11.97374058928512
  C   14.11332716573623     11.06094172755260     10.82429027007629
  O   14.86065131599837      9.97032065654251     10.80631428477579
  C   18.13114658675704      6.52842626621670     12.16043035616976
  C   17.85714450690896      5.69881100586974     10.87812780171100
  H   17.13643815290095      6.20152293721099     10.22686536151271
  H   17.45273179485007      4.71482873061357     11.15872395391412
  H   18.78928378953713      5.53722550884304     10.31827940413230
  C   19.06927240521644      5.70023124923696     13.06333564947308
  H   20.02488568425928      5.47517826092372     12.56716489773536
  H   18.58430839420291      4.74326872394977     13.29979247465259
  H   19.28204171038296      6.20940995611542     14.01483967876924
  C   16.80408580297338      6.74978427768312     12.93430954179654
  H   16.98772214448175      7.31424515452262     13.85996725952043
  H   16.36921264767138      5.77693131616176     13.20751191487966
  H   16.08025331436848      7.29802969716135     12.32426703156409
  C   22.00368142816896      9.83123186788329     12.55364395983863
  C   21.97211008784888      9.74675354060935     14.10029503866690
  H   22.97193344613013      9.94429347155100     14.51408148510486
  H   21.65626526297259      8.75264125203185     14.44448267143458
  H   21.27341364317924     10.48603167690880     14.51524107932524
  C   23.00183310448581      8.78183075937630     12.00291086113738
  H   23.04426684486381      8.82624598862692     10.90589240865176
  H   22.71160845035060      7.76174562573434     12.28844098537538
  H   24.01129808098654      8.96902858934162     12.39768591856355
  C   22.50246097431152     11.23351835106055     12.15290900288160
  H   22.56963183036255     11.34017552041811     11.06086403072199
  H   23.50493910009808     11.40443711768443     12.56912599567475
  H   21.84041588528203     12.02206779211994     12.53818090231755
  C   17.08837970746460     10.06945301591494      2.41446722984613
  C   16.70525522850316     11.56920175990535      2.32126898120914
  H   16.68663640587350     11.89359059579722      1.27037364790987
  H   17.43184608502397     12.18973416505741      2.86317606103010
  H   15.71289617282393     11.75756031779297      2.75312415120788
  C   16.05262791547961      9.22786842647672      1.62622612058786
  H   16.03758414990111      9.53425104292836      0.57004856144095
  H   15.03897876563904      9.35512824615880      2.02936203284823
  H   16.30362337185775      8.15962601435937      1.67310619035547
  C   18.47013412981635      9.87863818768653      1.75767912873443
  H   18.78258310148239      8.82513276291576      1.77024130544416
  H   19.24374998541047     10.47478300090876      2.26140485044285
  H   18.42645823381487     10.20270259691944      0.70873162373930
  C   19.51041323343713      8.23685908825375      6.55815581936585
  C   20.03017105928544      9.22504435327070      7.62910422189625
  H   20.93772364647337      8.82381953361359      8.10420525539779
  H   19.27892075840312      9.38112283301397      8.40418634844551
  H   20.27942887608092     10.19502984419326      7.17412881249720
  C   20.63946373030649      8.01369702207298      5.52933006552326
  H   20.96663097331740      8.95408882323438      5.06245928505277
  H   20.33904414108992      7.31553466469354      4.73489473955025
  H   21.50839092544749      7.58128557224121      6.04419003503369
  C   19.20126509073895      6.86796400584215      7.22028636922013
  H   18.86400380274156      6.14305492410158      6.46575481127251
  H   18.42704770450246      6.96280209581106      7.98696667935299
  H   20.11501813537104      6.47351178994342      7.68893562189556
  C   11.88162935807006     14.82448336550367     10.63001006499167
  C   12.48442601045551     15.61032435423656      9.43578905281690
  H   11.98356513257093     16.58362473535989      9.32546260347612
  H   12.36833559906485     15.05827255654762      8.49351349561993
  H   13.55797797349237     15.78543516428825      9.58962063839564
  C   10.37254558044889     14.58311285586388     10.37462405692099
  H   9.92113823445242     14.02971174284240     11.20915377703374
  H   10.20557144155969     14.00508028238709      9.45588490372744
  H   9.84537489303135     15.54275647426736     10.26994579646992
  C   12.02678279780267     15.68511347327757     11.90102071328368
  H   11.49269858854548     16.63566608871894     11.76451511421020
  H   13.07925604378683     15.91886364785402     12.11382850242706
  H   11.59955396696119     15.18378909792307     12.78070310780655
  C   14.84129872611132     11.53867249202292     13.25855369964361
  C   16.35866550702337     11.42186670021889     12.98292772006965
  H   16.54879524118182     10.64629527347268     12.24060689510871
  H   16.88993950595749     11.15795423857799     13.90931462750926
  H   16.76489730180765     12.37506921950472     12.61404899859353
  C   14.30923169016047     10.17042016972934     13.76237877689091
  H   13.23692495711040     10.23440254439668     13.99581330385840
  H   14.84393761618018      9.87981387122490     14.67869543012148
  H   14.46034520460572      9.39190604737840     13.00741130405564
  C   14.63404324555646     12.57468655508178     14.38249404021999
  H   15.03333689249039     13.56261742503331     14.11008697405663
  H   15.16778020838582     12.23719299401611     15.28158450814891
  H   13.57299360477948     12.68919785349365     14.64708568964643
  O   14.76852483469538      7.93611363241421      9.09078224847685
