36
Coordinates from ORCA-job ALUMAW_1_2_tpss_d4_lanl2dz_631gpol_Co2.opt
  Co  6.01299461489496      5.99917993633101      3.93957033537179
  S   8.04916016566917      3.77084170354539      0.79053825856866
  O   5.81114612972312      7.20064288463662      5.44678223649727
  O   1.69441920574402      7.90443954616452      5.91867794256212
  N   6.12372729669735      4.58943477550926      2.68628885718548
  N   4.09682796891643      5.99562463617944      3.97365042911168
  N   4.29682679811640      8.40179888985266      6.64923947056612
  C   6.95877704325114      4.24801263944970      1.88029626489231
  C   3.55529281845724      6.85700602810827      4.88693971894590
  C   2.16183838956045      7.02535562371675      4.98495078534996
  C   1.32648047134692      6.28971000636797      4.12907646598704
  C   1.90833382218471      5.41682675547141      3.20979606723473
  C   3.30154386122631      5.28854467121402      3.15120589924557
  C   4.60178668694565      7.51501200279783      5.69127988035801
  H   0.71625096307798      7.93908800033559      5.89503616343176
  H   0.24452466949481      6.40133337421198      4.18702941888376
  H   1.28725429024758      4.83192907127468      2.53664195689500
  H   3.81895228913664      4.62700491161854      2.46280564401313
  H   5.05076727078751      8.83178036277139      7.17711518492188
  H   3.32968961293035      8.64286830008981      6.84869572033845
  O   6.27970207251853      7.56118635431852      2.56421167330514
  O   10.41100732478866      7.58928228205493      1.79557557289060
  N   7.93129830288149      6.06669587533781      3.95554650491484
  N   7.88917397498974      8.39637303784270      1.19037249268773
  C   8.49585274409587      6.83627938590776      2.98602182043071
  C   9.89113675169422      6.81604800715876      2.79107163399189
  C   10.68893369231265      6.00963086383956      3.61834495396963
  C   10.07879546631807      5.24566169105715      4.60926227674837
  C   8.68784136545436      5.29233262782377      4.75053404370783
  C   7.48777673844142      7.62708922531876      2.21645522115069
  H   11.37590466273326      7.44218428279503      1.71945666308122
  H   11.76849651440165      5.97932706216257      3.47665962847365
  H   10.66857340947667      4.60683476056951      5.26078957133814
  H   8.16013889254299      4.69458104151538      5.48728534596436
  H   7.17990231842728      8.88658425480972      0.65360654649710
  H   8.85767140051410      8.40697512784081      0.88318935048716
