99
Coordinates from ORCA-job CAVKUJ_0_1_tpss_d4_lanl2dz_631gpol_Fe2.opt
  Fe  1.07905243782110      4.79132004869211     10.21517931254373
  O   0.65535450358675      5.96090524464714     12.56578861222679
  N   0.46273458679747      3.30318751098667     11.36471500927995
  N   -0.78815963719018      5.39890590519351     10.00169822009635
  N   1.64694949081194      6.09620435199209      8.81497847505758
  N   2.87684911577684      3.93615432456886     10.11344277578142
  N   1.40513278428221      5.82777695750773     11.58606499067383
  C   1.26138709687912      2.43301318134325     12.09031059504010
  C   0.46513224093629      1.62880284312242     12.98541463905024
  H   0.85916608036109      0.86529540602676     13.64450236950956
  C   -0.83212718414176      2.00700090283304     12.80356572302123
  H   -1.71922477489494      1.63032614780460     13.29691689495353
  C   -0.82503049790100      3.04889844626190     11.80490002348813
  C   -1.97494410334883      3.72467524161248     11.38762279730020
  C   -1.93569586312460      4.83304969989747     10.53811882989570
  C   -3.10770237775077      5.57103633405944     10.13465809875350
  H   -4.12582733929502      5.29596839117915     10.37942851337641
  C   -2.66968844086210      6.63356714416240      9.40064541882029
  H   -3.25546171103482      7.40536380120804      8.91724299749325
  C   -1.23275389967438      6.52567393148861      9.32800028610644
  C   -0.43463898739419      7.41545710767296      8.60112826400086
  C   0.92044221975478      7.18435396690802      8.34896145263384
  C   1.73651432896973      8.02263317802188      7.50499369755637
  H   1.40245577095954      8.93837727802788      7.03379886178108
  C   2.95794671895437      7.42145179474913      7.41361331404260
  H   3.82380181018355      7.73744031700761      6.84530031231499
  C   2.90300761987358      6.24112263172458      8.23913555203895
  C   3.99137058891630      5.38819064122716      8.44144102202001
  C   3.95814448563767      4.30282609733964      9.32250804820525
  C   5.11936691183922      3.50812815069996      9.63988734717457
  H   6.08422615232687      3.60470296742841      9.15782451945547
  C   4.76082375929082      2.67766657362595     10.66235198103708
  H   5.37390013940344      1.95577600623016     11.18703645157908
  C   3.37161702406201      2.93647784302454     10.94291743773013
  C   2.63880832107289      2.26486392436724     11.92612427987060
  C   -3.29418085381763      3.25920734663126     11.90282894538642
  C   -4.07992872727092      4.08173536993686     12.73259298065669
  H   -3.70701299165893      5.06781188131550     13.00505445152108
  C   -5.31688878896366      3.63391904710638     13.21101809135281
  H   -5.91156851628458      4.27868354168934     13.85690423633695
  C   -5.78552167541222      2.35869468969939     12.86721891206833
  H   -6.74839677099237      2.01134886782937     13.23928400738454
  C   -5.00918656418340      1.53148944391691     12.04440544526065
  H   -5.36877430705522      0.54046650375103     11.77034322166646
  C   -3.77162400891488      1.97781994405595     11.56694571439726
  H   -3.16763681213905      1.34003269568535     10.92308512379363
  C   -1.08377491775976      8.62534571517542      8.01994119155700
  C   -1.62918180092310      9.61024915863591      8.86574417876136
  H   -1.55743261481951      9.47923364817015      9.94455739438720
  C   -2.24919412711809     10.74501696558910      8.33012371933415
  H   -2.66090929060158     11.50126298954705      8.99723301605662
  C   -2.33650041965091     10.91003737073674      6.94120238180075
  H   -2.81955229807835     11.79271491985572      6.52445844280775
  C   -1.80233493171418      9.93257443010250      6.09059256766190
  H   -1.87568268351627     10.04904949664240      5.01005779226354
  C   -1.18151335138195      8.79813769797358      6.62569187383980
  H   -0.77757675752871      8.03040654990591      5.96739684621355
  C   5.28316920582928      5.69315502318426      7.75831220484156
  C   6.03753641839699      6.82045830655810      8.13588398816632
  H   5.66401740736660      7.46996400342192      8.92550455163714
  C   7.26473327535448      7.09169621053667      7.51923837200799
  H   7.84060017842102      7.96415019634019      7.82559273549492
  C   7.75335575569250      6.24101931989883      6.51815574855148
  H   8.70849622654569      6.45217296383742      6.03928092549727
  C   7.00855306123080      5.11693535235769      6.13664571146444
  H   7.38114351415947      4.45351711419579      5.35722067976227
  C   5.78141822134330      4.84429802025512      6.75330352666245
  H   5.19930019192658      3.97211678496021      6.45896080453823
  C   3.34092137667438      1.29157357302708     12.81204814989947
  C   3.46753136984391      1.55992794906381     14.18819751742140
  H   3.05490540386947      2.48569755066508     14.58697400343157
  C   4.11870167480494      0.65345476098468     15.03292491245445
  H   4.21330305023903      0.87669359342435     16.09481757014172
  C   4.65083268085817     -0.53442003906069     14.51374095750284
  H   5.15736663127354     -1.23985105226850     15.17090588229315
  C   4.52625483988986     -0.81213602935709     13.14579030822912
  H   4.93015069115720     -1.73760207292429     12.73727478217875
  C   3.87450282787197      0.09373614219852     12.30059683512772
  H   3.76532282151851     -0.12454745059291     11.23920527591451
  C   2.67574801569075      6.64577491621686     11.63153899552461
  H   3.21117786748026      6.41565712138956     10.71003282608067
  C   2.29602076584035      8.12840950752149     11.67616529877780
  H   1.67269429370190      8.33141091986410     12.55545842367442
  H   1.74325108470054      8.40702096859860     10.77142464553255
  H   3.20893446862212      8.73353953415036     11.73387047403599
  C   3.51875794568345      6.16840583105071     12.83984392663552
  H   2.99063894008938      6.42737790624154     13.76662585135854
  H   3.60060526220439      5.07390560537840     12.78886480440076
  C   4.89084308857133      6.80348247216469     12.78468243557447
  C   5.84506715230118      6.33315938484409     11.86343636953430
  H   5.60659023501799      5.47453681318873     11.23714229944459
  C   7.09420148548085      6.95319135096063     11.74822855082855
  H   7.81749417909042      6.57579435456274     11.02628284452086
  C   7.41156747716183      8.05308918623724     12.55777512471172
  H   8.38441141664135      8.53550048738389     12.47143953192714
  C   6.47176633871661      8.52545017266738     13.48318336169896
  H   6.71147964365857      9.37610890397771     14.12025073745351
  C   5.21964498393597      7.90585101761585     13.59219751646148
  H   4.48943236904309      8.27889075868397     14.31098288018598
