100
Coordinates from ORCA-job CAVKUJ-oxo_0_1_tpss_d4_lanl2dz_631gpol_Fe2.opt
  Fe  1.01298412016411      4.58469363274859     10.00893487835804
  O   0.78800881613377      5.82857400482770     12.63104835532291
  N   0.42637985141458      3.24680289843472     11.35966036262619
  N   -0.80358078205251      5.41278059853697     10.06394523055054
  N   1.66390970246528      6.07554231608050      8.83140249958543
  N   2.89049725916445      3.89961461616008     10.14686065415908
  N   1.47241982668769      5.78350114185056     11.61513249633457
  O   0.64099317198729      3.62759881173605      8.72844679506830
  C   1.22356068749550      2.39941434205312     12.09916839706812
  C   0.40783801874881      1.55855428721947     12.94424549783889
  H   0.79197292509032      0.80334145341536     13.61845744649389
  C   -0.89183117963472      1.89126708532377     12.69409809334588
  H   -1.78901082588111      1.48241544203672     13.14181840462218
  C   -0.87072779010351      2.95372143503720     11.71539299092212
  C   -2.01519385617315      3.64387930874737     11.29499966097313
  C   -1.95482227743837      4.82326597004228     10.54367078351725
  C   -3.10469220092992      5.62775231965217     10.20281583599493
  H   -4.13080379809769      5.36984272139326     10.43272545705263
  C   -2.63598659357588      6.73319125160200      9.55429814843597
  H   -3.19992789503996      7.55860093089771      9.13843491097978
  C   -1.20261064792464      6.58169259420515      9.45335048403700
  C   -0.38562461650903      7.46050943112205      8.72872131054562
  C   0.94900845880994      7.17775011407458      8.40762544177952
  C   1.75988737085330      7.98897465016980      7.53058094491725
  H   1.44435953901867      8.92258771942596      7.08267058764084
  C   2.94991780550619      7.33741700785657      7.37553319046234
  H   3.79954149469600      7.62696792682389      6.76990449841682
  C   2.89427378841340      6.15923368032872      8.20654284403096
  C   3.97506786848102      5.29164094349405      8.40732464440987
  C   3.95901878145209      4.25219649810467      9.34799159019132
  C   5.13546278072110      3.51196271932623      9.73749157499775
  H   6.10973900423865      3.61282767409559      9.27526189950163
  C   4.77926755403032      2.73219389499776     10.80234157819191
  H   5.40434499574798      2.06605705620522     11.38338061875463
  C   3.37260842381992      2.95481814651859     11.03197311430264
  C   2.61595355427093      2.28248283289006     12.00139875690420
  C   -3.34213980039902      3.13612923591090     11.74304366666728
  C   -4.15667267191800      3.89431732133677     12.60654871645195
  H   -3.80270240740059      4.86395103328748     12.95374265843408
  C   -5.39649151714805      3.40204081436977     13.02997712180202
  H   -6.01287116344399      3.99721567309653     13.70271147835591
  C   -5.83913102033518      2.14411042964846     12.59884868443751
  H   -6.80398351937337      1.76125368257479     12.92865426046132
  C   -5.03333050101917      1.37948378271787     11.74422053521910
  H   -5.37178881963719      0.40193238062807     11.40317712969212
  C   -3.79312132388642      1.87053550793110     11.32035771234068
  H   -3.16629380055504      1.28284080267260     10.65122484954367
  C   -1.00204923715497      8.71493971841707      8.21019152395980
  C   -1.46465429385539      9.69627873826563      9.10805055866436
  H   -1.35297179656301      9.52848967532793     10.17860526420402
  C   -2.05397380543932     10.87434740912603      8.63475573128906
  H   -2.40169506188076     11.62675102593340      9.34157890257207
  C   -2.19262991554382     11.08697229528667      7.25654977885762
  H   -2.65150415788272     12.00310054423075      6.88766490911803
  C   -1.74253356845427     10.11304241377949      6.35470497624421
  H   -1.85833393842021     10.26598472806058      5.28253756742741
  C   -1.15340661845122      8.93471579498780      6.82727073550372
  H   -0.81963644856619      8.16831382637817      6.12936635148208
  C   5.25564068571217      5.55394243029643      7.68854165546368
  C   6.00478854537090      6.71377912288381      7.96694619337485
  H   5.63293371028568      7.42273511773582      8.70464591333812
  C   7.22501984201494      6.94339573366180      7.32061439776997
  H   7.79610580001754      7.84251081157211      7.54927699239242
  C   7.71344647114935      6.01746727164800      6.38870573135311
  H   8.66290156363848      6.19614857253196      5.88594683351387
  C   6.97537059550238      4.85999494902738      6.10701097543865
  H   7.34732376817600      4.13789237707406      5.38140253513353
  C   5.75514735837398      4.62848028333989      6.75355055219405
  H   5.17715604535401      3.73166463282939      6.53548486034006
  C   3.30667122560977      1.34703436785578     12.93443368177225
  C   3.32301682950757      1.61950236708869     14.31590284570743
  H   2.83389457999426      2.52115466340605     14.68204141263481
  C   3.96210087832696      0.74868297386831     15.20594784043068
  H   3.97093905991680      0.97540857029242     16.27125196435706
  C   4.59228438731218     -0.40798051827831     14.72772046926359
  H   5.08959754747692     -1.08584508198187     15.41999625574800
  C   4.57648234159308     -0.69100573447014     13.35523960024487
  H   5.05479883569548     -1.59401617814909     12.97821676726356
  C   3.93688165407646      0.17900485216436     12.46457139006446
  H   3.90887048893702     -0.04650905585711     11.39965980853014
  C   2.68603742659326      6.67127515133695     11.63236138321395
  H   3.18735522330447      6.48689699478200     10.68083346985556
  C   2.22435501233871      8.13068325937391     11.72649171433375
  H   1.63474907200345      8.27805550658464     12.64020166323106
  H   1.61321307319220      8.39542735732901     10.85574782415897
  H   3.10383754493674      8.78493218151972     11.75523901944496
  C   3.61321581879479      6.23300314141123     12.79813299899418
  H   3.12190946366929      6.47106661183680     13.75063787063123
  H   3.74309510309185      5.14318890428983     12.74386684646840
  C   4.94880104184041      6.92990962859808     12.66977809811636
  C   5.87554798556762      6.49228495195801     11.70528953613732
  H   5.64201574679601      5.61861474331710     11.09850562294498
  C   7.08943495168904      7.16340548926799     11.52404975028996
  H   7.79200217434151      6.81031022449459     10.77012022581480
  C   7.39795255372336      8.28370418646095     12.30886593169615
  H   8.34359558730787      8.80631123944543     12.17103170919767
  C   6.48509836013431      8.72500348836685     13.27559729052599
  H   6.71912383415428      9.59107895014220     13.89351768739115
  C   5.26756228095747      8.05396658930700     13.45138744167144
  H   4.55953758279813      8.40152458023429     14.20430214848818
