54
Coordinates from ORCA-job DUKYAJ-oxo_1_1_tpss_d4_lanl2dz_631gpol_Fe2.opt
  Fe  3.98514708388244      4.67252979656309      7.19095343307616
  S   6.41190410358365      2.46946956643467      6.46256765302982
  F   6.95139912897076      0.21611154847552      5.15889780214492
  F   4.86753672232198      0.42583100015038      5.82683413015730
  F   5.58968971748030      1.58049225533425      4.10548593808219
  O   5.06512758981138      3.19992305899724      6.40909188782526
  O   7.47656937249118      3.23765766474988      5.81295520756521
  O   6.66019901139327      1.84508865874815      7.76542878648468
  O   2.99975725209244      5.85324840158109      7.76528902158099
  N   3.81759694128750      3.62654414789027      8.86662898278209
  N   4.20887230227712      5.60867776934467      5.45262842743309
  N   2.42466610223083      3.68141003824548      6.43702832018567
  N   5.58230853133686      5.61458366702687      7.91145107290943
  C   5.94214390992491      1.08015709932161      5.31531297932465
  C   3.81019452525818      2.27355412207230      8.84913140223038
  C   3.71815837229580      1.52803140611668     10.02420230492819
  C   3.62651391155024      2.19487136261004     11.24997866430995
  C   3.62129682981155      3.59603806270582     11.25860713526253
  C   3.71671028495003      4.28056442903535     10.04919569974110
  C   3.17595362174783      6.32843481929865      4.95258951244865
  C   3.26421598440103      6.98467361053419      3.72643533017999
  C   4.45561032951876      6.90152535052310      2.99421898268290
  C   5.52108875197876      6.16508882653063      3.52311749008910
  C   5.36827432634302      5.52950679939137      4.75621520286610
  C   2.52770433662375      2.93802226459222      5.31034126507464
  C   1.43773540289044      2.23663736906860      4.79461876008799
  C   0.20658071030548      2.30326221661806      5.45640598749492
  C   0.10675089898546      3.08002515883952      6.61728957992448
  C   1.23411784205036      3.75792475841497      7.07785354441683
  C   5.66871559856206      6.95731809337782      7.74710756845913
  C   6.76222932655076      7.68628872654973      8.20861109682376
  C   7.80228556663114      7.01472005300698      8.86425184228359
  C   7.69918873947620      5.63253756000042      9.04712492649387
  C   6.57332500010185      4.96451812356536      8.56518568902057
  H   -0.65767423009550      1.76400763640984      5.07466240423493
  H   -0.82894012701826      3.16586426871494      7.16379181877717
  H   3.50743176394206      2.90739636346211      4.84877449171565
  H   1.56399537172049      1.65044288064077      3.88805097262027
  H   4.55108603439221      7.40418290247848      2.03412312836904
  H   6.46763973988322      6.07487257077718      2.99656650192495
  H   6.16610087090417      4.94085751023734      5.19919705390331
  H   3.72678697232411      0.44305356082134      9.96608635296974
  H   3.55730885184877      1.63583196365735     12.18060507025625
  H   1.21852876240604      4.39158514822106      7.95950016891518
  H   4.82581123524643      7.42688786911663      7.25074367702563
  H   3.89409003010352      1.80776682917075      7.87453046193712
  H   6.78983547241185      8.76193276360667      8.05463725714015
  H   8.67032163557596      7.55970537419805      9.22868593860046
  H   3.54309580302028      4.15758101006313     12.18600375059932
  H   2.41131822595350      7.55038887643441      3.36020159987115
  H   3.69985432579729      5.36432409083894      9.98389783300420
  H   2.28910111769436      6.37045455202014      5.57793379903247
  H   8.47502261721836      5.06353203260729      9.55210732555605
  H   6.45571739755358      3.89276401080839      8.69006476614641
