59
Coordinates from ORCA-job DUKYAJ-CH3OH_1_1_tpss_d4_lanl2dz_631gpol_Fe2.opt
  Fe  4.08816514867331      4.52990586935784      7.19845201066748
  S   6.49175192059569      2.51459362803107      6.49016271181504
  F   7.47366303228091      0.57192706876269      4.97130547620765
  F   5.33863856403265      0.37345336751541      5.44974163989992
  F   5.99943885569414      1.85790783008130      3.97268922233385
  O   5.06895628901141      3.07043767101766      6.34211070138377
  O   7.52417617940242      3.46731819473121      6.06142904781272
  O   6.69429613840058      1.76770706665730      7.73598149104786
  O   2.80136905655533      5.90575480613469      8.02184669431987
  N   3.91277980291907      3.48612931113140      8.85116932960743
  N   4.22817544731273      5.50221511447711      5.49075989684688
  N   2.49389386148476      3.59485720356597      6.51038456252734
  N   5.71489281525349      5.43475789747616      7.89919827015631
  C   6.32582348702506      1.24537501202219      5.13734601197712
  C   3.84831246635259      2.13064373801812      8.79023966465636
  C   3.71940254193142      1.33893444175377      9.93045712356244
  C   3.64693502813506      1.95137453294890     11.18597662905893
  C   3.70941358569151      3.34929335459832     11.25229983766586
  C   3.84384555115987      4.07729811124354     10.07198019363739
  C   3.16583068415550      6.12744191114988      4.92018288836146
  C   3.22860440535926      6.75878107791806      3.68006612973984
  C   4.43689558713891      6.74076734060161      2.97120090251442
  C   5.53289415825502      6.08826768424440      3.54563667967468
  C   5.39941333145050      5.48505356543883      4.79709628115992
  C   2.52328854301642      3.04222594883444      5.26782199978370
  C   1.43910934362120      2.34575425908728      4.73551609422414
  C   0.26984373765401      2.20560078521573      5.49270428377276
  C   0.23902907386199      2.75807275737525      6.77876032629751
  C   1.36505637115263      3.43005549409063      7.25291138615907
  C   6.05758515988113      6.69914018645504      7.53285600600934
  C   7.21080431773689      7.33876240408778      7.98131206484271
  C   8.07939573018514      6.65647505072648      8.84136043618665
  C   7.74609404463467      5.35169848343619      9.21375578206043
  C   6.56964759470415      4.78043951269007      8.73124030343183
  H   -0.58941948587633      1.66873841888934      5.09718177455184
  H   -0.63450990557246      2.65906204917999      7.41849467703081
  H   3.45878199628478      3.15039132706075      4.73053759872947
  H   1.52134178232830      1.91795084722465      3.73947276693660
  H   4.51701322702846      7.21764025747486      1.99683728301303
  H   6.49223457093112      6.03629088594381      3.03687989520765
  H   6.23028766024584      4.96712552773839      5.26906166896459
  H   3.68779587394522      0.25774208845221      9.82448713056299
  H   3.54930826787541      1.35634266855393     12.09135172641341
  H   1.40118585598158      3.82423863626116      8.26699124949770
  H   5.37779976245322      7.19553059764106      6.84890490220152
  H   3.92427424487211      1.70324884016038      7.79687578545155
  H   7.42211744482232      8.35168723503609      7.64728276651200
  H   8.99314653439729      7.12550726662946      9.19923913847860
  H   3.66186788778901      3.87405675589922     12.20338906487392
  H   2.34185313720488      7.24349803904407      3.27882440273334
  H   3.90733867678584      5.16063926291663     10.07544393648523
  H   2.23493784444936      6.09658529818649      5.48109053796064
  H   8.39079779183321      4.76108255093681      9.85914647286829
  H   6.30875793955900      3.75846548351162      8.97953307064377
  C   2.98368306689313      7.34192118074738      8.17336217213098
  H   3.85812077770763      7.47304789361668      8.81156438063313
  H   2.09626453960876      7.75671202355697      8.66314830681810
  H   3.14656453606998      7.82039976506187      7.20012716067720
  H   1.93752411766259      5.74947441939950      7.58727005122052
