55
Coordinates from ORCA-job DUKYAJ-OH_1_2_tpss_d4_lanl2dz_631gpol_Fe2.opt
  Fe  3.99352861031523      4.64680636846479      7.16368751966949
  S   6.36913384345792      2.48763921873099      6.43758870233813
  F   6.98731572846511      0.31053854554792      5.04369042951125
  F   4.88574545785071      0.44395598729948      5.67326999705680
  F   5.61839049595734      1.69367480412118      4.02407124493038
  O   5.00925275300186      3.20114301155547      6.33942193612010
  O   7.44920446278421      3.29389645653244      5.86376964080594
  O   6.57242847583742      1.81637549300516      7.72479651475154
  O   2.99557454519947      5.96185343031536      7.88398606236433
  N   3.84101678151482      3.63838084831082      8.85388486398248
  N   4.19141930899683      5.58459928285462      5.41269498764865
  N   2.39470201180726      3.71589341775885      6.44873611775272
  N   5.58190182043205      5.58089908252102      7.91691720744963
  C   5.95403919792780      1.14361086643898      5.21607007160977
  C   3.79832259543000      2.28506370611671      8.84893899987345
  C   3.69535211015901      1.55087991890888     10.02998871744991
  C   3.62913850281337      2.22997048586216     11.25085362582968
  C   3.65943433478585      3.63064047986093     11.24719059358359
  C   3.76413641591413      4.30369839788912     10.03168397345033
  C   3.15145368764773      6.17563929062622      4.77851357230503
  C   3.29253997822439      6.82864728710769      3.55558089826254
  C   4.55601619995723      6.87109951288088      2.95312008276977
  C   5.62910461416772      6.25229867147957      3.60280255716425
  C   5.41598095559935      5.62167517366607      4.82907972396240
  C   2.44878793778965      3.01598441811365      5.28868595758452
  C   1.35040583638502      2.30234494588704      4.80989430648342
  C   0.15835567585847      2.30618717372649      5.54397991777596
  C   0.10810185365488      3.02747503554059      6.74314176482752
  C   1.24348633947934      3.71729477008512      7.16585862942645
  C   5.67014611230676      6.92554745235144      7.76559157167864
  C   6.75623151478710      7.65524326154039      8.24426816666408
  C   7.79065685256075      6.98321426909316      8.90745830048005
  C   7.68949250718899      5.59904876509753      9.07697801252064
  C   6.57200506899100      4.93213456238406      8.57533298773162
  H   -0.71141954442902      1.75616468260654      5.19133005704732
  H   -0.79271308048746      3.05542032454985      7.35091420770295
  H   3.40345134819413      3.02692269410493      4.77482199431982
  H   1.43896642237787      1.75237817799109      3.87648722475752
  H   4.69720280623280      7.37021085652348      1.99694905275600
  H   6.62776723688861      6.24802271350125      3.17390178828519
  H   6.21978403237811      5.11450556367332      5.35402807907410
  H   3.67609259337814      0.46554553879478      9.98079389878953
  H   3.55323637668081      1.68062047627511     12.18677555001877
  H   1.26994758329026      4.29107386482296      8.08835015591557
  H   4.82840265405592      7.39608474639800      7.26973107918302
  H   3.86243687871182      1.80828996959587      7.87765824654961
  H   6.78194222507270      8.73210100154748      8.09795526185369
  H   8.65226201438078      7.52810218691454      9.28715905372626
  H   3.60289286408766      4.20114597119148     12.17076540112054
  H   2.42415508653297      7.28654540396474      3.08888277643717
  H   3.77023231634161      5.38637105033844      9.95698259220543
  H   2.18136744698785      6.09820344386960      5.26273943210599
  H   8.46100807703393      5.02841759031419      9.58682251951096
  H   6.45706601898155      3.85932993419608      8.69278621046646
  H   2.28081605606000      6.23307941715127      7.26873776235870
