53
Coordinates from ORCA-job DUKYAJ_1_1_tpss_d4_lanl2dz_631gpol_Fe2.opt
  Fe  4.12033526332391      4.47174814279312      7.09380940856173
  S   6.46451442721180      2.41944017078333      6.45136434424899
  F   7.45767409199937      0.25105023029500      5.28962130442948
  F   5.32655832669614      0.12759403198186      5.81031559226084
  F   5.96808018079902      1.33062245570652      4.08921276848668
  O   5.04869401849982      2.96873536799449      6.20881652838209
  O   7.50056988244846      3.29245902930678      5.88815581353717
  O   6.64388827273467      1.88955854051766      7.80931574059484
  N   3.91499702721732      3.54672492963033      8.81243946463236
  N   4.21129310714908      5.49303146749263      5.41245955320172
  N   2.44201973764201      3.65401083805336      6.46691650878412
  N   5.62386791057087      5.52975125696223      7.83312367222316
  C   6.30549579518367      0.93473636716031      5.33719839786406
  C   3.80465340546117      2.19323169454054      8.83291451848414
  C   3.62470713232772      1.48434978493228     10.01909809205180
  C   3.53973202832659      2.18281635791526     11.22887544495490
  C   3.64349992529068      3.57959931812239     11.20879213878509
  C   3.83812505412896      4.22278343717479      9.98812190931624
  C   3.15333080275350      6.20157215407336      4.94087062447609
  C   3.21510061311424      6.94376712018486      3.76298790025696
  C   4.40707188346585      6.94710106287903      3.02678053815528
  C   5.49551396359335      6.21003378505281      3.50751291696621
  C   5.37075862753630      5.50146680979848      4.70277732474793
  C   2.39483935488325      2.99718453466371      5.27913428435216
  C   1.20967921541997      2.45744913282159      4.78038355563200
  C   0.02704365729868      2.59933542450886      5.51607690595171
  C   0.07592470498169      3.27301141793267      6.74305753451134
  C   1.29754979975587      3.77668152609138      7.18688360721475
  C   5.66177028741711      6.87612957222667      7.63650558896846
  C   6.65483712938867      7.68938079089137      8.17797089370540
  C   7.67307747231849      7.10351602193436      8.93998379187928
  C   7.64229739105205      5.71992228269685      9.14209934028092
  C   6.60648233327402      4.96901011490844      8.58858518881924
  H   -0.91026674683551      2.18996365845632      5.14590070371434
  H   -0.81271425451810      3.40169218914207      7.35582685362587
  H   3.34365492029533      2.90305509540837      4.76081403031212
  H   1.22259213534661      1.93359003722231      3.82795863454555
  H   4.48330504734151      7.51066627945972      2.09942878905523
  H   6.43995001101765      6.17846865866325      2.97030352548239
  H   6.19043746173001      4.91724722600984      5.11467105156569
  H   3.55955989665892      0.40008607301686      9.98590465651584
  H   3.39907588003255      1.65183404449243     12.16774185494056
  H   1.38669186061645      4.28769428632002      8.14350302913843
  H   4.86807424954945      7.29352178130230      7.02278551047567
  H   3.88349689306615      1.70228471692776      7.86914847412993
  H   6.62979000430826      8.76000395903026      7.99125967059703
  H   8.47079324924109      7.71097736941993      9.36170220542630
  H   3.58529773119987      4.16657269849709     12.12186897433460
  H   2.34130638157954      7.49874362708562      3.43095371556569
  H   3.94710809115051      5.30326769881232      9.92507207816073
  H   2.24319877402195      6.15301084233131      5.53474806056653
  H   8.41193272381839      5.21251160476866      9.71767958383815
  H   6.55373286711484      3.89280298160594      8.72296740129183
