49
Coordinates from ORCA-job BAFKOL-oxo_0_3_tpss_d4_lanl2dz_631gpol_Mn3.opt
  Mn  5.22583056492229      6.22615553063597      1.31762255788571
  O   5.36734332004251      5.43698131906737     -0.33477345882266
  O   6.42233563139613      7.59148465091701      0.87180203956611
  O   3.88712130427417      7.16278168755615      1.21919045484463
  N   6.82315664253027      5.08007058612523      1.96316874924601
  N   7.83706726462144      5.65954774602219      2.31717670565568
  N   8.81803031086861      6.17526784659029      2.68547595837847
  N   4.18961725662280      4.68061256238013      2.02708152282953
  N   5.23386804502444      6.76199415936892      3.24382478229238
  C   3.59005152745336      5.00383168922422      3.33101672116974
  H   2.81275541604857      5.75549563263323      3.12634441863488
  C   4.72040383627565      5.70390765631616      4.12986145941832
  H   5.53382169696650      4.97145585014470      4.24615523923598
  C   4.23006154942738      6.17157856188477      5.50645307693555
  H   3.47369819171048      6.96198793891969      5.37523963766147
  H   5.06388331758484      6.60252046958628      6.07839270684360
  C   3.61842602799297      4.99074956514039      6.28495899939157
  H   4.40433961010701      4.24892882540142      6.49805711026602
  H   3.24346875202029      5.34691924891286      7.25416288511027
  C   2.48771620929641      4.32026628585026      5.48689503166736
  H   1.66635180119163      5.03881302005124      5.33677188883167
  H   2.07300312443386      3.47337029564458      6.05052433239541
  C   2.99483398289089      3.83072108280431      4.11675048278044
  H   3.76516606188922      3.05708979462298      4.26751863516688
  H   2.17294726459373      3.37415642985092      3.54669426090496
  C   4.19844371320574      3.49110549626116      1.51016289482157
  H   3.70086101432581      2.67538350191118      2.04354107408519
  C   4.82299999982650      3.15014499998537      0.25970889948900
  C   4.84248080058521      1.79290280871677     -0.13866225040387
  H   4.40606812564413      1.04874970401341      0.52855495303251
  C   5.41049179904061      1.40354007470674     -1.34584795908028
  H   5.42640946823924      0.35492140802678     -1.63480827513035
  C   5.96435050507929      2.38648845373539     -2.19289501637129
  H   6.41213790320111      2.09125584302649     -3.14087061939565
  C   5.95172307086263      3.73084932108062     -1.83565844370309
  H   6.37550044917769      4.49737509274830     -2.47979113015308
  C   5.38494013447441      4.14519662581963     -0.60505206482550
  C   5.52320633427355      7.96756800265822      3.63491005039534
  H   5.39261111265210      8.21782778113905      4.69189399334212
  C   6.01954394615921      9.01739823592467      2.79106559147642
  C   6.16002589622124     10.31340722239519      3.34910026428732
  H   5.84179866264886     10.47127119235224      4.38037323733428
  C   6.68168602587483     11.36468397344346      2.61021853938126
  H   6.77313128263812     12.35648689545833      3.04743207826687
  C   7.10197415112826     11.12588202306485      1.28266202065260
  H   7.51864901366377     11.94296632109727      0.69467697817248
  C   6.99669064080450      9.86421562280317      0.71107412522162
  H   7.32731544150022      9.66981947388238     -0.30633243061257
  C   6.44836179858706      8.77877149009760      1.44157729142696
