48
Coordinates from ORCA-job BAFKOL_0_1_tpss_d4_lanl2dz_631gpol_Mn3.opt
  Mn  5.65668416156155      6.08717911270345      1.57875203568285
  O   5.86507266955280      5.35366099229465     -0.11509887677472
  O   6.18251692908523      7.72798730118370      0.91996054787353
  N   7.15994500305228      5.27523206275462      2.38438346622181
  N   8.11711331427060      4.98042664930258      1.66178318163230
  N   9.07324261508964      4.65440902148779      1.08803012650994
  N   4.40944565961710      4.69303784781456      2.12823829827843
  N   5.17518020935589      6.85568491667224      3.30300292603471
  C   3.68104705542901      4.98471792853533      3.38582241936545
  H   2.82904726301013      5.63420575824288      3.12027255048318
  C   4.66090966189617      5.82516853741936      4.22698799461055
  H   5.52794252246822      5.18428665635393      4.45927746662841
  C   4.01359488936416      6.30723368616950      5.53135458362354
  H   3.18452742838476      6.99589740764557      5.30053313324887
  H   4.74260045601461      6.85930654580505      6.14088277720960
  C   3.48589885987259      5.09864691653675      6.32893780804972
  H   4.33691885785341      4.47100885385857      6.63796562202111
  H   2.99648378078561      5.44764691788027      7.24873360008055
  C   2.50836485951488      4.25774411992939      5.49149349431651
  H   1.61698719912424      4.86161131363776      5.25625625991031
  H   2.16073291237661      3.38928893467984      6.06788454520208
  C   3.15678043929864      3.77887521471248      4.17723896617155
  H   3.99205415552375      3.09507927034133      4.39631935767179
  H   2.41624715110262      3.21928567874382      3.58858187565658
  C   4.26826114519719      3.53876003534819      1.51532860319234
  H   3.61549141038440      2.78487482004826      1.96434042491626
  C   4.88812551872143      3.17564549203365      0.28144942561002
  C   4.68318670840267      1.86104423007385     -0.22031466649441
  H   4.09555635674957      1.16364266691187      0.37863054923304
  C   5.21376440042045      1.46392426928561     -1.43570455218691
  H   5.05693411867412      0.45168526347971     -1.80278056054428
  C   5.96205410093374      2.39245768785926     -2.20023606327836
  H   6.38401390174429      2.08397433814388     -3.15619269472229
  C   6.16934989582368      3.68763875507415     -1.75044386064298
  H   6.74414527294907      4.40859595414636     -2.32725744078131
  C   5.65177985524176      4.11405419664115     -0.49714862782280
  C   5.39247929591241      8.08200927748730      3.70518776639775
  H   5.13272744125092      8.35784657749304      4.73106883860608
  C   5.94694296748013      9.12312710098808      2.88950423015185
  C   6.11388224948097     10.41484043763584      3.45059249056674
  H   5.83134445636969     10.56795483585065      4.49321650414536
  C   6.62494024634950     11.46566187061888      2.70195504787381
  H   6.75335112614671     12.44979729133838      3.14802587353689
  C   6.97627392826938     11.24219663956793      1.35216969097372
  H   7.38132675880136     12.06054478406702      0.75781505815245
  C   6.81678976177224      9.98987207742634      0.76954459123710
  H   7.08552691595205      9.80480423374435     -0.26814642167596
  C   6.31061411336752      8.89992552003051      1.52130163384712
