49
Coordinates from ORCA-job BAFKOL-oxo_0_1_tpss_d4_lanl2dz_631gpol_Mn3.opt
  Mn  5.17682263238840      6.33728339789439      1.35193327237802
  O   5.60533655725017      5.58707153477456     -0.28544388477390
  O   6.22491834378599      7.77086964232413      0.80653067824057
  O   3.71380076639694      6.92980691536457      1.12504791314267
  N   6.91216347877544      5.46714970508994      2.12871955277986
  N   7.04450618896665      4.30291057789076      2.44518210879090
  N   7.19221319506136      3.18929963971061      2.78603900341924
  N   4.35817105611858      4.68919292292732      2.07059126575707
  N   5.09088108561687      6.94061683964253      3.24066289239384
  C   3.71917762146236      4.94373258493939      3.37376244512566
  H   2.81260987335902      5.52852302291624      3.14795130873392
  C   4.68221684795167      5.86389232105464      4.16215397338656
  H   5.59169217085490      5.28162791290293      4.37679961704570
  C   4.05143429921389      6.31263735168419      5.48787787881149
  H   3.16604828946396      6.93423188815201      5.28031691515917
  H   4.76020818461642      6.92573808389409      6.06154508536911
  C   3.65480379137268      5.07840105718589      6.32225634269166
  H   4.56605940513241      4.52844996597694      6.60565389516716
  H   3.17484127180070      5.40434166592953      7.25528363583292
  C   2.71826181945237      4.14401531846069      5.53883561610913
  H   1.76781443117725      4.66361395270719      5.33755706528798
  H   2.47645002877855      3.25668494834083      6.13966016182298
  C   3.34613818133792      3.70723499460636      4.20080711352753
  H   4.25015504818754      3.10415602076030      4.37892955071669
  H   2.63184070017966      3.08116324840893      3.64745035994452
  C   4.37015696992354      3.53049093044362      1.48671376986438
  H   3.92308279441542      2.67269947708659      1.99627939620426
  C   4.95087108595391      3.27794545485335      0.19365853535344
  C   4.94476654067013      1.94491383722794     -0.28017799923170
  H   4.49831683008934      1.17509374906926      0.34983769604538
  C   5.49694488961942      1.60735411440346     -1.50983136619356
  H   5.48388315684312      0.57622183195751     -1.85595768553151
  C   6.08114804686075      2.62050165664427     -2.29802652953555
  H   6.52281693731705      2.36886437028461     -3.26146025361595
  C   6.11162272227544      3.93888498888730     -1.85796510022196
  H   6.56601405824809      4.72830478520301     -2.45182935434357
  C   5.54522739591169      4.30882844038681     -0.60986369194631
  C   5.36357922332356      8.14842637456413      3.62556662578668
  H   5.21467411442160      8.41763624268448      4.67617207353544
  C   5.89978698637972      9.17752538347455      2.77724974476636
  C   6.08369072788486     10.46680738177647      3.33651079026667
  H   5.75028529109023     10.63789932613115      4.36090486285981
  C   6.67496898356466     11.49404357984288      2.61456490622518
  H   6.80127543868876     12.47948413075681      3.05759915143132
  C   7.12417959654737     11.23695030527501      1.30020192635392
  H   7.59959434126098     12.03227621357428      0.72732622012121
  C   6.97565088213877      9.98103194199594      0.72710873965550
  H   7.32077831060799      9.76910845882768     -0.28203952262982
  C   6.34481940726141      8.92096151110931      1.43475329791970
