54
Coordinates from ORCA-job BAFKOL-CH3OH_0_5_tpss_d4_lanl2dz_631gpol_Mn3.opt
  Mn  5.85047717741683      6.13320423837988      1.49452649666351
  O   5.77524385140315      5.51646443755119     -0.26695931191546
  O   6.66312800318916      7.77671056111810      0.99588959694512
  O   3.73557878570437      7.46832465804825      1.11690082603399
  N   7.41386062879112      4.93280855685710      2.19768091723393
  N   7.23771647843355      3.82583446532045      2.65953039741157
  N   7.03315326502716      2.75849768852873      3.11497437604780
  N   4.59156689255197      4.68844173003096      2.08639679311868
  N   5.50538579386757      6.80792853471820      3.34285639222364
  C   3.96004055419223      4.95470770557673      3.39266207999231
  H   3.12616607619296      5.64785115270808      3.19544597327608
  C   5.01502861190626      5.72834635898777      4.22399598130804
  H   5.86665646874127      5.05034805783079      4.38211317022015
  C   4.45042829442706      6.15887945066734      5.58285093926083
  H   3.62100466954833      6.86947460476855      5.43226812477197
  H   5.22547957846332      6.67090620614655      6.17113729013434
  C   3.94124141871821      4.92362191718319      6.35087474132969
  H   4.79095341694944      4.25928035627459      6.57175011816971
  H   3.51923062033169      5.23794703365572      7.31549246354406
  C   2.89155409233197      4.15511686983713      5.53134035802533
  H   2.00687729234600      4.79432922053343      5.37822493401795
  H   2.55299125812775      3.26774089573968      6.08350286862522
  C   3.45348894340263      3.72727432213832      4.16193231392541
  H   4.28800349637380      3.02229619468070      4.29754243719459
  H   2.66984752736840      3.21496769242287      3.58545310826423
  C   4.55032481445961      3.51972856034150      1.50923827458119
  H   4.02723698586131      2.69795708816926      2.00368716985357
  C   5.14265679222241      3.22195147121843      0.23271787808559
  C   5.10729296353014      1.88021173497618     -0.22135330637198
  H   4.68490136092594      1.12297730485704      0.43947336712190
  C   5.60791634981208      1.52462958868754     -1.46586325679217
  H   5.58678022419222      0.48807054812609     -1.79511228582752
  C   6.14586848006658      2.52962406960738     -2.29763183239489
  H   6.54042256630359      2.26427639634106     -3.27808837581451
  C   6.19182649882141      3.85697687430475     -1.88371101981123
  H   6.61394311987077      4.63508924204888     -2.51578812558001
  C   5.71173931604217      4.23761832233409     -0.60642871466979
  C   5.61603383793058      8.04558349805880      3.73500993374435
  H   5.33931450127382      8.30017365041912      4.76280681530542
  C   6.07464086977503      9.13843127314122      2.91977971564954
  C   6.04623013032331     10.44435643604562      3.47929569099234
  H   5.66288506863668     10.56289255421733      4.49384912957206
  C   6.49075365519043     11.54708522452417      2.76751545573176
  H   6.45913846579502     12.54083589933759      3.20864773203670
  C   6.99428784348048     11.35830545817480      1.45953825351421
  H   7.35225785758858     12.21700232765470      0.89236034238826
  C   7.04464263566850     10.09606178436088      0.88327227513148
  H   7.43991885140980      9.94324657704333     -0.11858657893252
  C   6.58938422404269      8.94662906429878      1.58728570680838
  C   3.58097067164463      7.66803040425208     -0.30771268537067
  H   2.80168517514786      8.41748381131552     -0.50786713083663
  H   4.53208720018824      7.96623207578324     -0.76654046754308
  H   3.27933519200492      6.70088879226182     -0.71497182372846
  H   4.06200115198437      8.31283705839377      1.49185447733377
