58
Coordinates from ORCA-job AKONEW_1_5_tpss_d4_lanl2dz_631gpol_Co3.opt
  Co  2.19161449475357      6.40860668638574      9.45734735545498
  O   1.85249175232542      7.55531568871285      7.98927986392004
  O   -3.47420218322076      6.81239528555142      7.71550587473577
  O   2.57926858893270      4.68391380142680      8.72336764287114
  O   7.84641596450798      5.34553630473749      8.72545792777325
  N   -0.10595374952203      9.58094377317864      5.78398323335312
  N   0.16737680505950      6.17238722190014      9.59723203672763
  N   1.98159201421838      5.80892432246463     11.57002085589680
  N   4.12951845362778      6.71465476389751      9.88537574906197
  N   4.61494847928254      3.07285234268670      6.25341113436607
  C   0.93954950006837      9.00366340363973      6.36552983282304
  C   0.77639173359672      8.07640110301011      7.46044613223000
  C   -0.54725653446794      7.76572790530367      7.90596838163648
  C   -1.64100472670813      8.41367068756875      7.26413435196932
  C   -1.35628702534226      9.29126352611683      6.22076267921627
  C   2.32408879542509      9.34461802438334      5.88731516088514
  C   -0.77809198035029      6.77396490303325      8.93047553815292
  C   -0.18330420887146      5.16716611596847     10.60512425137269
  C   0.54379403579425      5.56947349726840     11.89103334760796
  C   2.64498906843998      6.67963434633085     12.58511439213435
  C   4.14863600291280      6.85269085822774     12.34452217253634
  C   4.50679853178825      7.56279394149904     11.02431550778957
  C   5.07846557101216      6.16404299443788      9.17598358280205
  C   4.88467636166943      5.16178021043953      8.14906005394423
  C   5.97983186276215      4.77880885678095      7.32629270074865
  C   5.77993492077316      3.74466543220838      6.41248108596959
  C   3.57379148846326      3.39608086766142      7.01720222651125
  C   3.64845670425177      4.44989905691480      7.99874496157423
  C   -3.08399535181430      8.19547935625192      7.68751770195467
  C   7.32684174466534      5.46479417743542      7.38588285819843
  C   2.28216741410419      2.64790561324830      6.83470987407249
  H   -2.16607172152171      9.79334551023857      5.69070889756960
  H   2.86945731152635      8.43411331608204      5.60113694600134
  H   2.25495850844276     10.01966006275313      5.02972658997857
  H   2.90556146651956      9.82789010251146      6.68560010872398
  H   -1.82088501091820      6.48909327260818      9.10643272637588
  H   0.18068181715574      4.19339893305335     10.24589083827610
  H   -1.26838441995098      5.10245209597464     10.76855763278683
  H   0.13319971701444      6.51704092956936     12.26055332405837
  H   0.43057949533337      4.81094696952819     12.67814126092755
  H   2.48049315662178      6.26323205092761     13.59144673729517
  H   2.13831865532631      7.65372062294064     12.54347431392561
  H   4.65643029507055      5.87719709964956     12.37711930941537
  H   4.54941366665171      7.44860668498065     13.17582663676032
  H   3.96143569782715      8.51393864459721     10.94505087405372
  H   5.58469688496945      7.77938790571705     10.99761969190655
  H   6.12076136774763      6.42851628732197      9.38930539263439
  H   6.59676434494345      3.42447212132557      5.76548420328400
  H   -3.24016521228731      8.54699875509378      8.71536062118891
  H   -3.74504086344312      8.78253545364881      7.03233335258139
  H   8.00080381613067      4.98770159525321      6.65930522746290
  H   7.22308250117447      6.52726955702079      7.10165324535349
  H   1.47124342335611      3.33340808871331      6.55064071469404
  H   2.41054027767141      1.88939851712245      6.05747895555933
  H   1.97580559192012      2.16472155035533      7.77334038288865
  H   -3.43889142882852      6.47841764129127      6.79621610587556
  H   8.74622757166360      5.73010252260387      8.72254672686579
  H   2.47083856174525      4.90587864044640     11.53825071526485
