64
Coordinates from ORCA-job AKONEW-CH3OH_1_5_tpss_d4_lanl2dz_631gpol_Co3.opt
  Co  2.19541800160146      6.38660927014074      9.63164772240654
  O   1.98270581846190      7.03658296828972      7.84673527104988
  O   -3.40278311039638      6.80119437161897      7.58130200687423
  O   2.64116257769522      4.57060193859566      8.99372724195302
  O   7.80811485838346      5.52898635909346      8.32866958251602
  N   0.20716724395654      9.06839077701146      5.49140834457168
  N   0.16294322772533      6.06648675319410      9.64983055909203
  N   1.94815391564861      5.60207574624170     11.66763924578827
  N   4.16504292296448      6.62999427994654     10.04416385194896
  N   4.38658925314117      3.28051680536272      6.14158241376366
  O   1.73080825319654      8.42794646985033     10.43011794000052
  C   1.19075017384654      8.42736243840954      6.11487729212154
  C   0.95413558231294      7.62451414581679      7.28925313541695
  C   -0.38972346485427      7.49443070659973      7.76626322716194
  C   -1.42047845839739      8.18713037831593      7.06397101205781
  C   -1.06107085747358      8.94864928956126      5.95652620794146
  C   2.59559205780104      8.55282654295841      5.58877103753005
  C   -0.72325346797118      6.60299784708267      8.85977897783711
  C   -0.24177247028056      5.09875119933856     10.67124477232449
  C   0.49602540553727      5.46910712627703     11.96285254911592
  C   2.68114201091750      6.32233427432811     12.74598275673328
  C   4.19207813172520      6.40878499278859     12.49638463366043
  C   4.59896202549607      7.27746683463182     11.28749695989707
  C   5.07726496137763      6.13678767786275      9.24916903305969
  C   4.80088396955864      5.24444269554197      8.14438325964403
  C   5.78804973339312      4.99751787841436      7.15505331415432
  C   5.52126176206475      4.02294391300036      6.19425167329466
  C   3.45516215035867      3.46283153349298      7.07225917712200
  C   3.59904668727582      4.45261181031511      8.11834344988745
  C   -2.87553255318750      8.13650533734231      7.49743768892545
  C   7.08953265312723      5.76576309528178      7.10166446305481
  C   2.19399099645011      2.64758872539445      7.00736362785243
  H   -1.81995062999854      9.49584913758029      5.39644724096425
  H   3.00939536601484      7.56152961821347      5.35497236765989
  H   2.59315208143968      9.17356722001510      4.68827409563712
  H   3.25938295265430      9.00250318219876      6.34163136539266
  H   -1.78333022395555      6.34637352321916      8.97256908111993
  H   0.07748184854787      4.10318372143077     10.32818904406140
  H   -1.33076702683363      5.08410303927457     10.82446690746272
  H   0.14871697504889      6.44814716284459     12.31844258025823
  H   0.30717856704684      4.73154462235933     12.75671288791437
  H   2.49980152412331      5.82799517702832     13.71398977220321
  H   2.25194219819638      7.33112198019020     12.79484999322891
  H   4.62123437878770      5.40224643056127     12.37981411395067
  H   4.64842595420073      6.84666439665225     13.39492856339614
  H   4.11563381281252      8.25921571223759     11.36407481633243
  H   5.68991196466329      7.41980158725789     11.28287049527827
  H   6.13605566385064      6.34963542808234      9.44152074322654
  H   6.25511197101474      3.80881254165856      5.41702049330041
  H   -2.99654390317827      8.54247359419567      8.51001460794311
  H   -3.47722355677498      8.75802499236328      6.81706334559417
  H   7.67225948623947      5.42525673349193      6.23282153342458
  H   6.88700231826710      6.84386161767475      6.97042674563743
  H   1.31924026841333      3.29773814599382      6.86201248830874
  H   2.26314514686237      1.93724694578616      6.17873669494103
  H   2.03300825748629      2.10440011316842      7.94917959399884
  H   -3.37779571691119      6.42026771664489      6.68002684686109
  H   8.66939801718913      5.98714608676145      8.25369172543394
  H   2.35324658740063      4.66541689428554     11.54933585099484
  C   2.20145918051521      9.61422566530682      9.72845267066099
  H   3.24796526642227      9.42196007803148      9.48252417785897
  H   2.12165382906087     10.48616798131317     10.38785345460984
  H   1.63252672126994      9.77438465709240      8.80663792240070
  H   0.75533072866726      8.47264011498543     10.48812535118631
