64
Coordinates from ORCA-job AKONEW-CH3OH_1_1_tpss_d4_lanl2dz_631gpol_Co3.opt
  Co  2.14770939189102      6.53222069619463      9.93101410990937
  O   2.28187549181724      7.34276304258628      8.25415960247896
  O   -2.91842504233277      6.21752270324208      7.16763923108511
  O   2.40757704166199      4.82019654821717      9.21908110162564
  O   7.44635812290905      5.71434265284969      7.94793913340459
  N   0.70283862132899      8.70164216125963      5.35734720868297
  N   0.28495565405301      6.20979681956231      9.80780776197286
  N   2.05324387574956      5.64175936958055     11.71507153407058
  N   4.05394273296292      6.74410077953136     10.10208955194024
  N   3.68861144797528      3.64686241340557      6.07495220184155
  O   1.74844787058272      8.36269419218954     10.78137963564703
  C   1.62400060060674      8.31278040910344      6.22910742738340
  C   1.27912671124118      7.64282571771905      7.46169883812861
  C   -0.09855313273887      7.36303360203588      7.70746987897378
  C   -1.06844306644997      7.80544738130401      6.74926928072274
  C   -0.61005393001649      8.46225728237695      5.61916215887005
  C   3.07577766954990      8.55900437803569      5.91413073219745
  C   -0.50916271111571      6.57483668386130      8.83365672619992
  C   -0.14677355086173      5.18435080640996     10.77196584027945
  C   0.60995169121043      5.45949369480884     12.06595671622411
  C   2.82920591054912      6.24236133734002     12.83919202836742
  C   4.32036029671470      6.37091827029769     12.51974040067186
  C   4.60878116531239      7.31279684680639     11.33771158414922
  C   4.87285583306496      6.26318090180314      9.20958506201738
  C   4.46319998127984      5.43395222487533      8.10043053106278
  C   5.30814180923538      5.20954655373619      6.98167847186394
  C   4.85778665766710      4.32147415940302      6.00667466059331
  C   2.89044218712587      3.82144640956038      7.13011219776997
  C   3.23428493790633      4.72503932104958      8.18343128110618
  C   -2.55661038597490      7.59593839973888      6.95313874095120
  C   6.61696589844493      5.93974941629383      6.78969914351697
  C   1.60318701923385      3.04352311294312      7.19972276202902
  H   -1.31137833986403      8.82155473220193      4.86577758030835
  H   3.62680714937761      7.60861383709147      5.87343959422372
  H   3.15426402314465      9.07136726366847      4.95093466340399
  H   3.55188595299858      9.16915260087262      6.69535368564016
  H   -1.54157797043315      6.21134699595085      8.83460643010405
  H   0.13698492914697      4.20321750214372     10.36510029256980
  H   -1.23427892493203      5.20538986675085     10.92236795704674
  H   0.26927083668881      6.39920026389765     12.51959094950706
  H   0.48507810499042      4.65296402160305     12.80071639740127
  H   2.68587048641367      5.62504399613120     13.73876714182620
  H   2.39267424116568      7.23060730184003     13.02705093953262
  H   4.75721075167436      5.38276334121573     12.31349676558363
  H   4.82136989242443      6.76611199458876     13.41379801456468
  H   4.14642207379505      8.28968417415898     11.52414112273171
  H   5.69225163459892      7.45351097306899     11.22364394641073
  H   5.94861400220717      6.43564630522023      9.31963244943857
  H   5.45311570149906      4.14268467194946      5.11097207478981
  H   -2.90572550206502      8.11197264174382      7.85700021268472
  H   -3.10399683314156      8.01871628925670      6.09740606966328
  H   7.10548646207011      5.56307716016010      5.87868836569045
  H   6.43169138530580      7.02018951846876      6.65146293576133
  H   0.74949450351809      3.72146435096256      7.34188085702303
  H   1.47354309196141      2.47504721627068      6.27413792746816
  H   1.60680236200235      2.34681703153345      8.05056233149563
  H   -2.68480430483631      5.72731530218362      6.35323772420567
  H   8.29733896940314      6.16920010638032      7.78716514197611
  H   2.45531974261744      4.72777554180563     11.46219295725303
  C   2.16641276818077      9.57492833562261     10.06740739004020
  H   3.18076434881620      9.38493378374373      9.71571570299613
  H   2.14324603844781     10.40894484631490     10.77650360920515
  H   1.51033206690531      9.76212345693457      9.21345971834237
  H   0.76932355533412      8.36501628814277     10.82960351537351
