59
Coordinates from ORCA-job AKONEW-oxo_1_5_tpss_d4_lanl2dz_631gpol_Co3.opt
  Co  2.20417797409827      6.66612631669200     10.06667567074355
  O   2.26623614709235      7.50454216145537      8.09829065940542
  O   -2.99143011225145      6.32075454913820      7.32722767622414
  O   2.43853912289428      4.97375714582532      9.22537675395922
  O   7.52321624833042      5.78776734382016      8.07831281891016
  N   0.50372021036957      8.87890094584304      5.31601787498709
  N   0.26807733971269      6.31480427354489      9.85663377219588
  N   1.97193338429234      5.68899364825976     11.98424886376982
  N   4.14148455127891      6.78271794132330     10.25883882060790
  N   3.74937562226691      3.92766140456483      6.05684584271304
  O   1.94884170135867      8.14963598812718     10.74731092621139
  C   1.48767038497485      8.48565490874616      6.12024966960047
  C   1.24161325206843      7.78667057320421      7.38615270872073
  C   -0.13120275763313      7.45421464805953      7.72194318727717
  C   -1.14487978929284      7.89752983861550      6.84511493074094
  C   -0.76719869302746      8.60741408584982      5.68571281668410
  C   2.90582465546315      8.73760776933254      5.70697264424578
  C   -0.51719955729854      6.68255995011125      8.89720598549802
  C   -0.22251736942728      5.42265086567022     10.91761647327832
  C   0.50801518874696      5.75109330201063     12.22515239651798
  C   2.78792009200264      6.32070591457166     13.05359743889390
  C   4.28056686265727      6.37841601465820     12.69832048931838
  C   4.64315737959707      7.31992906483245     11.52843919059571
  C   4.96112504565039      6.33947903160609      9.35624918367497
  C   4.53202185769746      5.60176908719974      8.18502232921467
  C   5.38171582445918      5.41952870654421      7.06618125023785
  C   4.93627679335143      4.57815889193811      6.04534442654766
  C   2.94631159761668      4.05049952945153      7.11048125979852
  C   3.28701409352857      4.89936905534719      8.22462735175779
  C   -2.63092059055006      7.69394149507706      7.11348686466288
  C   6.71496279184021      6.12058342387532      6.93373674277720
  C   1.62588584679477      3.33161503917066      7.10880825077099
  H   -1.53998582657699      8.98889050493650      5.01703513619279
  H   3.43966726856576      7.78677258057283      5.56481288679193
  H   2.91877746325541      9.30878041977843      4.77496433030171
  H   3.44247905478161      9.28332635447653      6.49561376777037
  H   -1.56069557872289      6.35149728131133      8.91781626755605
  H   0.01620451772714      4.39528897441266     10.60340644342704
  H   -1.31069355074111      5.50744110992186     11.03949087765422
  H   0.27868039804446      6.77819011872532     12.53183360877972
  H   0.19167972686144      5.06360976189571     13.02351762653846
  H   2.65479256384287      5.77590573247494     14.00180117990584
  H   2.39478622071844      7.33646482677223     13.18348822075297
  H   4.66509946203006      5.36960110063775     12.48487429849335
  H   4.81504107608763      6.73868700302432     13.58811162279325
  H   4.18161674892146      8.30442803107929     11.67599525866779
  H   5.73476029050149      7.43445442236245     11.47071214903147
  H   6.04045371005544      6.46609984592223      9.49184734985367
  H   5.55928526832031      4.40408317076402      5.16797358483644
  H   -2.92572034472100      8.21010978402962      8.03539657182762
  H   -3.21125810636211      8.13286707451511      6.28853084253202
  H   7.19976457038487      5.79439096099301      6.00133984688670
  H   6.55939311872549      7.21231091978650      6.87016987770850
  H   0.79383200719607      4.05003382190913      7.15333013337228
  H   1.53996660550519      2.72881807508564      6.20036224908076
  H   1.53322556105360      2.68390719747554      7.99181385619166
  H   -2.86378726025286      5.84265207388377      6.48306407381474
  H   8.38276334731727      6.24216055386795      7.96978459128639
  H   2.26873658881808      4.71777538491877     11.83411807741000
