58
Coordinates from ORCA-job AKONEW_1_1_tpss_d4_lanl2dz_631gpol_Co3.opt
  Co  2.13683085090451      6.57444028687310      9.97499812032815
  O   2.21721041908413      7.63631618978527      8.48712955268178
  O   -2.79594713067641      6.20360638546718      7.13747986367500
  O   2.39299758311898      4.85578108048280      9.30124711383370
  O   7.40178297063617      5.74058360953727      7.96307248712910
  N   0.71370740456279      9.00962306261393      5.55128533034211
  N   0.28294881173722      6.34726473181516      9.88470784765071
  N   2.03796710370903      5.76210216274017     11.79304750569853
  N   4.03536460541932      6.79315747084909     10.13526047737493
  N   3.58630573585105      3.73731017644850      6.10717960174975
  C   1.61299936640628      8.66843378824980      6.46780745310813
  C   1.24880054560962      7.91214412179016      7.63904999878504
  C   -0.11501407223049      7.53137826007266      7.80827678393535
  C   -1.06055779613820      7.93178420376859      6.81539849188847
  C   -0.58434245912205      8.64967513961980      5.72632688568095
  C   3.04620641096815      9.08135255013852      6.26704231687866
  C   -0.52405252121959      6.73640507420377      8.92939149801664
  C   -0.17973912290922      5.34614962396954     10.86400938124976
  C   0.58768843996885      5.61000323099844     12.15154109156388
  C   2.79795295850691      6.44771278043086     12.88387297153568
  C   4.28807178588666      6.60677083811720     12.57152094763961
  C   4.56309687213829      7.46847805619231     11.32663258845455
  C   4.85653234586578      6.31224932180254      9.25016940782334
  C   4.43433457890177      5.46601639206016      8.15165036374521
  C   5.25363448590057      5.24716759218114      7.01700576401697
  C   4.76564125168860      4.38641098027583      6.03038386088623
  C   2.80494445577432      3.90517679413689      7.17648503807407
  C   3.19217870145681      4.77928638538331      8.24071112722299
  C   -2.53764302506701      7.60407767294508      6.92687006734369
  C   6.57052561640233      5.96023040799697      6.80730903806220
  C   1.51318996720064      3.13817503227603      7.26110317516229
  H   -1.26525241880767      8.95909481202477      4.93300684833458
  H   3.70307319580647      8.20027510661241      6.24208513794109
  H   3.13311750743767      9.63121380345059      5.32568143196830
  H   3.39183559326106      9.71527480097562      7.09566790459166
  H   -1.56211786097593      6.39754904821574      8.95626779723666
  H   0.06934542799457      4.35394678005651     10.45992624085474
  H   -1.26486001955270      5.40615890265429     11.01835086413696
  H   0.26617724253784      6.56102595003334     12.59253515834485
  H   0.45187701172090      4.81113053419912     12.89212826329499
  H   2.66412142582284      5.88309879309273     13.81869156378190
  H   2.33039054784057      7.43259652272685     13.01792515124098
  H   4.76339082110487      5.62294805992607     12.44579979565503
  H   4.75998578092094      7.08461516343842     13.44055188665814
  H   4.06685786472725      8.44516936318039     11.41987192001263
  H   5.64250112015224      7.63767379746921     11.21249668883113
  H   5.92980898679360      6.50792956221441      9.33786744010368
  H   5.33576154822422      4.22234919908766      5.11587426076638
  H   -2.98023465814366      8.09971520382566      7.80045468993490
  H   -3.06191069382310      7.97622939355904      6.03403193728727
  H   7.04848874771326      5.56628065119248      5.89797254401525
  H   6.39435609131495      7.04023619955511      6.65470868420983
  H   0.67503748496763      3.81702927624554      7.47294775821773
  H   1.33938112132754      2.61598967775081      6.31579444105759
  H   1.54426016874509      2.40076136368413      8.07602147476803
  H   -2.50540103983447      5.73000678333764      6.33193801978258
  H   8.25684752669399      6.18476974299996      7.79440101062960
  H   2.44294433569409      4.83116810526890     11.62183493480546
