137
QM: 56 at, MM: 81 at, Links: 2
Fe   -0.210200    0.496300    5.734000
N    -2.158500    0.202400    5.611900
N    -0.428000   -0.657700    7.206800
N     1.652900    0.492500    6.399900
N     0.122500   -0.907100    4.371800
N     0.047900    1.591400    4.223800
N    -0.500000    2.263100    6.591000
C    -4.369700    0.509300    4.744600
H    -4.946900    0.947400    4.130100
C    -4.884500   -0.407800    5.642900
H    -5.809400   -0.624200    5.636700
C    -4.019700   -1.005800    6.556600
H    -4.351800   -1.624300    7.197400
C    -2.667100   -0.691700    6.523500
C    -1.653400   -1.210700    7.450400
C     0.640800   -0.995100    7.959200
C     0.089900   -2.245900    4.541600
H    -0.099000   -2.592100    5.405400
C     0.324600   -3.133300    3.504500
H     0.278200   -4.068100    3.661200
C     0.389100   -0.429100    3.105300
C     0.369500    1.036700    3.030500
C    -0.054400    2.932100    4.357200
C     0.531400   -1.915400    8.988900
H     1.288700   -2.128400    9.520800
C    -0.712300   -2.535900    9.244700
C    -1.818000   -2.155700    8.461900
H    -2.671100   -2.542400    8.620600
C     1.855700   -0.287400    7.519600
C     2.708400    1.200800    5.925300
H     2.586200    1.740700    5.153200
C     3.950000    1.163800    6.520600
H     4.661600    1.687400    6.172200
C     4.153800    0.362300    7.624800
H     5.010600    0.310600    8.030900
C     3.092500   -0.363800    8.133500
H     3.211900   -0.911200    8.899900
C     0.215300    3.781200    3.286800
H     0.153200    4.723400    3.394500
C     0.580200    3.228100    2.037900
C     0.630900    1.835100    1.922300
H     0.844900    1.434700    1.087700
C    -0.434500    3.314800    5.730800
C    -0.772100    2.502000    7.884400
H    -0.805100    1.770900    8.489400
C    -1.004800    3.776800    8.364100
H    -1.157300    3.919300    9.291600
C    -1.014100    4.853600    7.477700
H    -1.211400    5.732000    7.778800
C    -0.725600    4.605400    6.142800
H    -0.728800    5.318200    5.513700
C     0.626300   -2.656300    2.236300
H     0.814000   -3.253400    1.521200
C     0.645300   -1.279600    2.041300
H     0.834500   -0.922300    1.181500
C    -3.018600    0.787600    4.739400
C    -0.888200   -3.516200   10.351700
C     0.058100   -4.540400   10.628200
C     1.224000   -4.805400    9.803200
H     1.348700   -4.304600    9.006100
C     2.138200   -5.743900   10.137400
H     2.900800   -5.866800    9.583400
C     1.983100   -6.559100   11.310400
C     2.921900   -7.545000   11.661100
H     3.706700   -7.658500   11.137900
C     2.703700   -8.355800   12.775900
H     3.338700   -9.026500   13.000800
C     1.568800   -8.191300   13.560700
H     1.436800   -8.754800   14.313600
C     0.616100   -7.207700   13.261200
C    -0.564100   -7.007900   14.053700
H    -0.707900   -7.556100   14.815800
C    -1.471200   -6.068800   13.745300
H    -2.236300   -5.963100   14.296900
C    -1.306400   -5.207400   12.586100
C    -2.225000   -4.214100   12.262700
H    -3.002200   -4.103100   12.798600
C    -2.023600   -3.380700   11.165400
H    -2.665100   -2.709300   10.964900
C     0.823600   -6.383100   12.107700
C    -0.145800   -5.377000   11.764300
C     0.807500    4.147300    0.872500
C     1.778300    3.913200   -0.122300
C     2.768700    2.861600   -0.057500
H     2.817000    2.326300    0.725200
C     3.627400    2.612500   -1.074400
H     4.263100    1.911300   -0.991900
C     3.591100    3.398300   -2.276500
C     4.448800    3.118300   -3.371600
H     5.058700    2.390900   -3.325700
C     4.390400    3.920400   -4.522000
H     4.950600    3.719300   -5.261600
C     3.532300    4.997000   -4.591200
H     3.510300    5.526000   -5.380300
C     2.685800    5.325800   -3.515600
C     1.810300    6.467300   -3.549900
H     1.807700    7.031000   -4.315500
C     0.998600    6.749900   -2.519100
H     0.450700    7.524200   -2.556800
C     0.941700    5.897900   -1.350900
C     0.040000    6.135100   -0.300500
H    -0.524800    6.898900   -0.327200
C    -0.032000    5.264700    0.772900
H    -0.667300    5.428500    1.460700
C     2.701000    4.498500   -2.348000
C     1.809200    4.773400   -1.270500
Cl   -0.508400    0.941700   11.558600
O    -1.452300    0.200800   10.860700
O    -0.444400    2.260400   11.044500
O    -0.790300    1.111300   12.912000
O     0.766600    0.445200   11.217000
Cl    4.359000    0.072900    2.613300
O     3.758800   -0.661200    3.682300
O     5.580700   -0.563000    2.235900
O     4.622600    1.409400    3.046500
O     3.468300    0.049200    1.505300
N     3.058600   -3.919900    5.890900
C     3.146600   -5.005500    4.996900
H     3.587000   -5.759200    5.440800
H     3.667600   -4.740500    4.211300
H     2.245600   -5.271200    4.715600
O     3.938700   -3.023200    5.492900
O     2.103600   -3.660500    6.630600
N     3.146600   -6.773300    3.015200
C     3.192500   -5.591800    2.327600
H     3.641600   -4.914000    2.875600
H     2.280400   -5.295900    2.125500
H     3.688300   -5.717900    1.492000
O     4.149300   -7.176900    3.417400
O     2.149000   -7.436300    3.275700
N     3.389600   -2.413800   -0.550100
C     4.622800   -1.700300   -0.885600
H     5.142100   -2.227500   -1.527400
H     5.152900   -1.563400   -0.072900
H     4.400800   -0.830600   -1.281500
O     2.347400   -2.076900   -0.866900
O     3.530500   -3.416700    0.147900

QM/MM links (counting starts at zero)
 25   56
 39   81
