109
QM: 31 at, MM: 78 at, Links: 12
Fe   15.948200    6.272400    3.173700
O    15.841500    6.257800    1.200900
N    15.948200    4.323400    3.173700
N    14.016900    6.274100    3.355200
N    15.948200    8.224700    3.173700
C    14.956100    3.519900    3.690300
C    15.381000    2.142800    3.524000
C    13.688500    3.952700    4.125800
C    13.240900    5.248700    3.870600
C    11.865700    5.687000    3.864200
C    11.790500    6.880100    3.246000
C    13.165900    7.310300    2.973100
C    13.585400    8.584600    2.583400
H    15.182400    5.990000    0.999100
H    16.112300    6.939600    0.879700
C    14.891600    9.020100    2.796600
C    15.337300   10.389100    2.891800
O    16.055000    6.257800    5.146400
H    16.714000    5.990000    5.348200
H    15.784100    6.939600    5.467600
C    16.515500    2.142800    2.823300
C    16.940300    3.519900    2.657000
C    18.207900    3.952700    2.221600
C    18.655500    5.248700    2.476700
N    17.879500    6.274100    2.992100
C    17.004800    9.020100    3.550700
C    18.311000    8.584600    3.764000
C    18.730500    7.310300    3.374200
C    20.106000    6.880100    3.101300
C    20.030700    5.687000    2.483100
C    16.559100   10.389100    3.455500
Cl   13.812500    3.827500    7.121700
Cl   11.832200    2.258300    2.311700
Cl   13.109300    8.528800   -0.358000
Cl   12.112000   10.335600    4.639900
O    14.600600    0.671000    5.118500
O    14.407600    0.143400    3.002300
O    10.603200    4.851000    5.604700
O     9.787300    4.734600    3.569700
O    10.286100    7.713400    1.718900
O     9.818800    7.821600    3.864200
O    14.413300   11.766200    1.282200
O    14.447800   12.458800    3.351400
N    14.716200    0.906300    3.931500
N    10.680200    5.021400    4.389800
N    10.525200    7.542900    2.919800
N    14.651100   11.630900    2.481800
C    11.873500    2.140100    4.039400
C    12.758900    2.973300    4.768100
C    12.748500    2.832700    6.162000
C    11.915600    1.939800    6.820800
H    11.930700    1.874900    7.767800
C    11.068600    1.147100    6.078200
H    10.502000    0.524900    6.520000
C    11.031600    1.244500    4.690700
H    10.435700    0.700700    4.190500
C    12.566500    9.566600    2.071800
C    12.317500    9.650500    0.700700
C    11.424300   10.586600    0.198000
H    11.251800   10.635300   -0.735000
C    10.794600   11.441600    1.068900
H    10.199300   12.096300    0.723600
C    11.000100   11.376600    2.419600
H    10.545600   11.971800    3.004800
C    11.875500   10.432400    2.923600
N    17.180200    0.906300    2.415800
O    17.295800    0.671000    1.228800
O    17.488800    0.143400    3.345000
N    21.371200    7.542900    3.427600
O    21.610300    7.713400    4.628500
O    22.077600    7.821600    2.483100
N    21.216200    5.021400    1.957500
O    21.293200    4.851000    0.742600
O    22.109100    4.734600    2.777600
C    19.329900    9.566600    4.275600
C    19.578900    9.650500    5.646600
Cl   18.787100    8.528800    6.705300
C    20.472100   10.586600    6.149300
H    20.644600   10.635300    7.082300
C    21.101800   11.441600    5.278400
H    21.697200   12.096300    5.623700
C    20.896300   11.376600    3.927700
H    21.350800   11.971800    3.342500
C    20.020900   10.432400    3.423700
Cl   19.784400   10.335600    1.707400
N    17.245300   11.630900    3.865500
O    17.483200   11.766200    5.065200
O    17.448600   12.458800    2.995900
C    19.137500    2.973300    1.579200
C    20.023000    2.140100    2.307900
Cl   20.064200    2.258300    4.035600
C    20.864800    1.244500    1.656600
C    20.827800    1.147100    0.269100
C    19.980800    1.939800   -0.473500
C    19.147900    2.832700    0.185300
Cl   18.083900    3.827500   -0.774400
H    19.965700    1.874900   -1.420500
H    21.394400    0.524900   -0.172600
H    21.460700    0.700700    2.156800
O    16.582400    8.619700    0.193000
C    17.546500    8.787500   -0.550900
C    18.438000    7.624100   -0.888600
H    18.111500    6.820600   -0.435400
H    19.352400    7.818900   -0.594100
H    18.430500    7.480700   -1.858500
C    17.835100   10.121300   -1.118400
H    17.166300   10.762500   -0.802300
H    17.805400   10.072600   -2.097200
H    18.725600   10.410800   -0.832800

QM/MM links (counting starts at zero)
  6   43
  7   48
  9   44
 10   45
 12   56
 16   46
 20   65
 22   88
 26   74
 28   68
 29   71
 30   85
