111
QM: 51 at, MM: 60 at, Links: 4
Fe    8.757500    5.053300   11.456000
O     6.950600    6.153300    8.002500
O     9.031800    7.542300   14.639700
O     6.587000    1.970800   12.926100
O    12.575400    4.603200   10.185400
N     8.011400    4.976400    9.626200
N     7.951800    6.770800   11.347100
N     9.225200    5.763700   13.243600
N     7.252300    4.001700   12.195800
N     9.575800    3.338800   11.585200
N    10.555700    5.462700   10.726700
C     8.031800    4.047300    8.451900
H     8.971900    3.947100    8.127100
C     7.212700    4.831300    7.403800
H     7.724500    4.925400    6.561900
H     6.361700    4.363600    7.207200
C     7.425600    6.064300    9.256200
C     7.341500    7.165300   10.208000
C     6.773000    8.429600   10.091200
H     6.360100    8.705500    9.281300
C     6.826300    9.276400   11.186000
H     6.436400   10.140700   11.132000
C     7.441100    8.872000   12.359200
H     7.472500    9.448000   13.114000
C     8.011200    7.604300   12.409000
C     8.753100    6.942400   13.468300
C     9.704500    6.486900   15.432500
H     9.086300    6.104700   16.104100
H    10.498400    6.851300   15.898900
C    10.118300    5.422200   14.402200
H    11.064800    5.597300   14.131900
C     5.773600    4.161200   12.406800
H     5.315400    4.112400   11.519100
C     5.452400    2.877000   13.199600
H     5.381600    3.069700   14.168200
H     4.600500    2.476500   12.890700
C     7.545800    2.771400   12.446000
C     8.887000    2.302600   12.117600
C     9.458900    1.043200   12.256100
H     8.973000    0.327500   12.649600
C    10.755400    0.860000   11.803900
H    11.164900    0.005600   11.879300
C    11.468100    1.919600   11.238900
H    12.352000    1.797200   10.914500
C    10.841300    3.160900   11.165800
C    11.356500    4.441800   10.679700
C    12.702900    6.057700    9.980400
H    13.088600    6.253000    9.090200
H    13.282700    6.459100   10.674900
C    11.267200    6.610700   10.084500
H    10.901600    6.748600    9.164000
C     7.485700    2.685500    8.826600
C     6.144500    2.507300    9.140100
H     5.550200    3.247700    9.109200
C     5.663700    1.252800    9.497900
H     4.745200    1.142300    9.710800
C     6.512000    0.171700    9.545700
H     6.180200   -0.683000    9.794500
C     7.841200    0.328500    9.233300
H     8.426100   -0.419600    9.262300
C     8.337500    1.589500    8.871600
H     9.257800    1.694000    8.657600
C    10.011900    3.984500   14.859000
C     8.851000    3.494300   15.428700
H     8.098900    4.063400   15.537400
C     8.784000    2.172200   15.841400
H     7.981500    1.839400   16.225500
C     9.876200    1.332000   15.699000
H     9.825200    0.427500   15.985600
C    11.038800    1.820600   15.136300
H    11.790700    1.250200   15.031200
C    11.109200    3.144400   14.724600
H    11.914100    3.478400   14.347700
C     5.390600    5.460200   13.079300
C     4.619500    6.376300   12.381200
H     4.344700    6.183400   11.492700
C     4.248600    7.579600   12.978700
H     3.706300    8.196800   12.500500
C     4.660800    7.880000   14.258000
H     4.405500    8.702100   14.660800
C     5.454100    6.978700   14.956900
H     5.766200    7.189900   15.828600
C     5.785600    5.763900   14.370300
H     6.291500    5.129700   14.864300
C    11.128100    7.896500   10.874100
C    11.576300    7.984000   12.186900
H    11.985200    7.233400   12.600400
C    11.426900    9.175700   12.896400
H    11.735800    9.229900   13.792900
C    10.834400   10.275000   12.312300
H    10.730700   11.082800   12.801200
C    10.389700   10.185900   10.997300
H     9.977700   10.935800   10.585000
C    10.542500    9.012300   10.289700
H    10.244200    8.965800    9.389000
F    10.334200    5.176300    6.635200
F    11.703900    3.846900    5.438700
F    11.308900    3.381300    7.609000
F    12.569400    5.199700    6.974500
B    11.468100    4.405500    6.671600
F    13.274200    5.193400   13.082800
F    13.436200    6.582600   14.838900
F    15.151600    6.406000   13.414400
F    14.677800    4.667100   14.764200
B    14.148800    5.704500   14.030700
N    10.810400    3.354000    2.160100
C    10.317500    4.276700    2.604100
C     9.694200    5.465100    3.196800
H    10.102900    6.270800    2.817800
H     9.831200    5.454800    4.167400
H     8.734400    5.461800    3.002000

QM/MM links (counting starts at zero)
 11   51
 29   62
 31   73
 49   84
