133
QM: 22 at, MM: 111 at, Links: 6
Fe    8.283400    6.612500    7.099400
H     8.914500    7.557100    6.074700
P     6.510800    7.917300    6.818500
P    10.101600    5.395600    6.757500
N     7.559100    5.621900    5.389600
H     7.199600    4.993100    5.729900
N     9.470300    8.120200    9.375100
N     7.102200    4.928300    9.321500
C     5.591400    7.095600    5.428500
H     4.955600    6.427600    5.785500
H     5.083400    7.767600    4.909100
C     6.617100    6.424900    4.553900
H     6.162500    5.832500    3.903700
H     7.121900    7.110400    4.048300
C     8.625200    5.115900    4.489800
H     9.043900    5.874300    4.010500
H     8.230200    4.505900    3.817000
C     9.667300    4.384500    5.280100
H    10.472500    4.237400    4.722300
H     9.319000    3.501900    5.565300
C     9.013500    7.558400    8.464500
C     7.508900    5.507200    8.389800
C     6.668900    9.683900    6.305600
H     5.766100   10.107600    6.386100
C     7.120300    9.825600    4.864600
H     6.502300    9.341100    4.277400
H     8.023100    9.454500    4.766800
H     7.130000   10.774200    4.617700
C     7.625100   10.447700    7.206900
H     7.409900   10.261400    8.143300
H     7.536100   11.408500    7.035600
H     8.545600   10.165600    7.020000
C     5.152900    7.908000    8.107300
H     4.957200    6.945800    8.296800
C     3.834400    8.528700    7.660800
H     3.572300    8.152200    6.795400
H     3.941200    9.499000    7.576100
H     3.140300    8.333000    8.323500
C     5.627000    8.511200    9.431900
H     6.426200    8.034800    9.740400
H     4.918400    8.426200   10.103000
H     5.842200    9.458500    9.302200
C    11.724100    6.165800    6.300400
H    12.386500    5.424900    6.192600
C    11.653600    6.909300    4.969000
H    11.338100    6.299400    4.270700
H    12.545000    7.242700    4.733400
H    11.033900    7.663700    5.049300
C    12.258700    7.099600    7.371500
H    12.299100    6.624600    8.227800
H    11.663300    7.874200    7.456000
H    13.156600    7.401900    7.122300
C    10.520600    4.052500    7.964000
H     9.697600    3.487100    8.023200
C    11.629300    3.101100    7.487100
H    11.428700    2.797500    6.577400
H    11.676200    2.327900    8.087700
H    12.488400    3.572100    7.493800
C    10.770200    4.551800    9.391800
H    10.050300    5.163100    9.655900
H    11.627700    5.024100    9.426800
H    10.791300    3.789300   10.005100
C    10.017900    8.759500   10.569000
C    11.533700    8.666400   10.517800
H    11.914100    9.095500   11.313000
H    11.862300    9.121100    9.713700
H    11.802400    7.724400   10.494400
C     9.477500    8.009200   11.792600
H     9.809200    8.436900   12.609800
H     9.780100    7.078000   11.764500
H     8.498700    8.034800   11.784600
C     9.540600   10.202100   10.578700
H     9.878800   10.652800   11.379700
H     8.561800   10.222300   10.581200
H     9.875500   10.662200    9.780400
C     6.628800    4.345300   10.576500
C     6.426200    2.860900   10.360300
H     6.075100    2.456100   11.181800
H     7.283700    2.443900   10.131900
H     5.790400    2.720600    9.629200
C     7.657400    4.577400   11.653300
H     7.332200    4.206300   12.500800
H     7.811100    5.539600   11.755600
H     8.495500    4.134800   11.404200
C     5.292100    5.007900   10.930200
H     4.934500    4.605800   11.749000
H     4.656300    4.873000   10.196400
H     5.431200    5.967400   11.070500
B     6.618600   12.899700   13.914600
C     7.666200   13.222200   12.681000
C     7.364400   12.948300   11.343900
H     6.545900   12.508300   11.143900
C     8.212400   13.291000   10.291100
H     7.976100   13.068400    9.397800
C     9.390200   13.955000   10.546900
H     9.971000   14.192500    9.833800
C     9.723500   14.273400   11.860800
H    10.534000   14.732300   12.049200
C     8.864400   13.915800   12.893200
H     9.100600   14.152000   13.782000
C     5.745100   11.530000   13.663500
C     6.242900   10.405800   13.003900
H     7.115400   10.447700   12.629800
C     5.518600    9.223700   12.868700
H     5.902000    8.481500   12.414000
C     4.237200    9.127900   13.397600
H     3.724400    8.335700   13.286000
C     3.724200   10.206100   14.086700
H     2.855600   10.153500   14.469300
C     4.466000   11.369400   14.226000
H     4.094900   12.088600   14.722900
C     5.663600   14.233000   14.000200
C     4.500300   14.382800   13.233900
H     4.221000   13.659400   12.683200
C     3.737300   15.548700   13.244800
H     2.955900   15.606700   12.705400
C     4.104600   16.617500   14.030000
H     3.580400   17.408300   14.051200
C     5.256500   16.512200   14.789400
H     5.533100   17.242300   15.330200
C     6.013700   15.343600   14.764500
H     6.801600   15.301800   15.292300
C     7.405500   12.590600   15.324800
C     8.622000   11.898400   15.361100
H     9.039100   11.666300   14.540500
C     9.245100   11.536700   16.550200
H    10.064800   11.059000   16.526800
C     8.676700   11.870000   17.764500
H     9.108700   11.639300   18.577700
C     7.466500   12.546100   17.777100
H     7.062000   12.780900   18.604400
C     6.845100   12.883500   16.573100
H     6.007200   13.330200   16.602500

QM/MM links (counting starts at zero)
  2   22
  2   32
  3   42
  3   52
  6   62
  7   75
