78
QM: 21 at, MM: 57 at, Links: 6
Fe    8.649700    6.197100   12.231900
H     7.502400    6.070600   11.333500
P     7.611500    7.878400   13.215500
P     9.361300    4.274700   11.430700
N     7.609000    5.016800   13.596800
H     8.166400    4.928700   14.271800
N     9.998600    7.850300   10.173400
C     6.685200    7.057300   14.584500
H     7.232800    7.045000   15.408100
H     5.846100    7.548800   14.771800
C     6.372600    5.636200   14.141600
H     6.042600    5.107900   14.911100
H     5.666900    5.647700   13.446600
C     7.319600    3.641500   13.118100
H     6.627800    3.667800   12.411000
H     6.979500    3.088100   13.864600
C     8.603900    3.038900   12.566700
H     8.405200    2.201600   12.076600
H     9.227200    2.828700   13.305800
C     9.447200    7.196500   10.985800
H     9.994100    6.377700   13.211300
C     6.307100    8.865500   12.326900
H     6.072500    9.652100   12.898600
C     5.033800    8.060800   12.085300
H     4.667800    7.762800   12.943500
H     5.241200    7.280400   11.530100
H     4.374700    8.622800   11.626100
C     6.817900    9.389900   10.990500
H     7.602200    9.957000   11.140000
H     6.114200    9.914800   10.554800
H     7.065700    8.634700   10.417000
C     8.626000    9.144500   14.126900
H     9.165600    8.629800   14.791900
C     9.636800    9.845100   13.231900
H    10.169400    9.175500   12.753100
H    10.229100   10.401100   13.781000
H     9.165200   10.410500   12.585900
C     7.829200   10.157600   14.938800
H     7.205700    9.685600   15.528800
H     7.326500   10.740400   14.332100
H     8.442900   10.699500   15.477700
C     8.858400    3.689800    9.737100
H     9.384500    2.866400    9.522300
C     9.159700    4.738600    8.668800
H    10.112400    4.966100    8.694000
H     8.626900    5.543100    8.841100
H     8.933100    4.379500    7.785300
C     7.372900    3.338400    9.661300
H     7.173900    2.621000   10.297800
H     7.153600    3.040100    8.754400
H     6.838000    4.128900    9.883000
C    11.165100    3.846100   11.549200
H    11.430900    4.048200   12.491500
C    12.042800    4.728900   10.673600
H    11.753700    5.661600   10.756100
H    11.964100    4.444000    9.739000
H    12.976400    4.650000   10.962000
C    11.506000    2.370800   11.329500
H    10.949700    1.816600   11.915600
H    12.451600    2.220000   11.537900
H    11.334800    2.131500   10.393800
C    10.354400    8.639600    9.017000
C    10.468100   10.097700    9.447500
H    10.704200   10.650100    8.672400
H    11.163100   10.182900   10.132200
H     9.610300   10.398100    9.813300
C    11.686700    8.134200    8.475000
H    11.928800    8.645200    7.673800
H    11.606600    7.185100    8.245100
H    12.380900    8.247800    9.156900
C     9.272400    8.479600    7.951300
H     9.492700    9.037000    7.175400
H     8.408500    8.759000    8.319400
H     9.221600    7.540800    7.675400
B    10.413000    6.022500   14.317300
H     9.750500    6.431000   15.126300
H    11.453600    6.445700   14.411100
H    10.443900    4.905500   14.349200

QM/MM links (counting starts at zero)
  2   21
  2   31
  3   41
  3   51
  6   61
 20   74
