143
QM: 61 at, MM: 82 at, Links: 12
Fe    2.828100    4.329700    6.941800
O    -0.486100    0.966700    3.108500
O    -0.145700    1.819300   11.535800
O    -0.834600   -0.091900    8.570300
O     3.706400    5.682600   12.743700
N     4.099800    5.732700    7.334700
N     0.874200    2.294900    8.778600
N     2.553500    4.072900    8.838300
N     4.052300    5.728100    9.762900
N     4.333400    2.887300    7.027800
C     1.640600    3.190400    9.386700
C     2.543600    4.363600   11.144300
C     0.868200    2.154100    7.449900
C     1.591900    3.371600   10.833300
C     3.135600    4.785600    9.882300
C    -0.582100    0.732100    4.471900
C    -1.436200   -0.255800    4.923100
H    -1.952300   -0.747100    4.295600
C     4.500200    6.165400    8.591100
C    -0.815200    0.136900    7.234700
C     0.160500    1.435300    5.402100
C     2.769500    4.717200   12.485500
C     0.813500    2.779000   11.821800
C    -1.556500   -0.548000    6.286500
H    -2.157800   -1.227500    6.566900
C     0.017200    1.188400    6.776600
C     1.043100    3.150600   13.124100
H     0.531700    2.745400   13.815500
C     1.996600    4.096700   13.460100
H     2.123600    4.327500   14.372200
H     3.895000    2.227100    7.205600
O     6.142200    7.692800   10.775000
O     5.801800    6.840200    2.347700
O     6.490700    8.751400    5.313200
O     1.949800    2.976800    1.139800
N     1.556300    2.926700    6.548900
N     4.782000    6.364500    5.105000
N     3.102600    4.586600    5.045300
N     1.603900    2.931300    4.120600
C     4.015500    5.469100    4.496900
C     3.112600    4.295900    2.739200
C     4.787900    6.505400    6.433600
C     4.064200    5.287900    3.050200
C     2.520600    3.873900    4.001200
C     6.238200    7.927400    9.411600
C     7.092400    8.915300    8.960400
H     7.608400    9.406600    9.588000
C     1.156000    2.494000    5.292400
C     6.471300    8.522500    6.648800
C     5.495600    7.224200    8.481400
C     2.886700    3.942300    1.398100
C     4.842700    5.880500    2.061700
C     7.212700    9.207500    7.597100
H     7.814000    9.886900    7.316600
C     5.639000    7.471100    7.107000
C     4.613000    5.508900    0.759400
H     5.124400    5.914000    0.068000
C     3.659500    4.562800    0.423400
H     3.532600    4.332000   -0.488700
N     1.322700    5.772100    6.855700
H     1.761100    6.432400    6.678000
C    -1.345700    2.378900   10.931900
H    -1.746600    1.715200   10.315500
H    -1.106900    3.183400   10.404300
C    -1.751600   -1.098900    9.042300
H    -1.610500   -1.948500    8.555000
H    -2.686700   -0.805900    8.902100
C    -1.040100    2.239300    2.699000
H    -0.459800    2.650100    2.010300
H    -1.082100    2.851500    3.475000
C     3.798600    6.104800   14.116800
H     4.056400    5.342500   14.691600
H     2.924400    6.451200   14.427800
C    -1.476400   -1.283400   10.508400
H    -0.549300   -1.577800   10.632000
H    -2.084600   -1.959600   10.872200
H    -1.614400   -0.433100   10.976300
C     4.840800    7.185700   14.190400
H     5.726300    6.797000   14.029300
H     4.821400    7.597700   15.078900
H     4.653900    7.866800   13.510100
C    -2.342600    2.750500   11.989800
H    -2.595500    1.950100   12.495200
H    -3.139400    3.134600   11.566400
H    -1.944800    3.408200   12.596500
C    -2.441300    2.025600    2.132500
H    -2.391600    1.435200    1.352300
H    -2.821300    2.887900    1.865900
H    -3.010800    1.614800    2.817000
C     5.358500    3.022600    8.049700
H     5.917500    2.217400    8.060800
H     4.934200    3.137300    8.925700
H     5.916000    3.804300    7.851100
C     5.014400    2.581400    5.767200
H     5.463700    3.385500    5.434000
H     4.357500    2.276800    5.106400
H     5.677800    1.874400    5.917200
C     7.001800    6.280600    2.951600
H     7.402700    6.944300    3.568100
H     6.763100    5.476000    3.479200
C     7.407700    9.758300    4.841200
H     7.266600   10.607900    5.328500
H     8.342800    9.465400    4.981400
C     6.696200    6.420200   11.184600
H     6.116000    6.009400   11.873200
H     6.738200    5.808000   10.408500
C     1.857500    2.554600   -0.233200
H     1.599800    3.316900   -0.808000
H     2.731800    2.208200   -0.544200
C     7.132600    9.942900    3.375100
H     6.205500   10.237300    3.251500
H     7.740800   10.619000    3.011300
H     7.270600    9.092600    2.907200
C     0.815300    1.473800   -0.306800
H    -0.070100    1.862400   -0.145800
H     0.834700    1.061800   -1.195400
H     1.002200    0.792700    0.373500
C     7.998800    5.908900    1.893700
H     8.251600    6.709400    1.388400
H     8.795600    5.524900    2.317200
H     7.601000    5.251300    1.287000
C     8.097400    6.633800   11.751000
H     8.047800    7.224300   12.531300
H     8.477400    5.771600   12.017600
H     8.666900    7.044600   11.066600
C     0.297700    5.636900    5.833900
H    -0.261400    6.442100    5.822800
H     0.722000    5.522100    4.957800
H    -0.259900    4.855100    6.032400
C     0.641700    6.078100    8.116300
H     0.192400    5.274000    8.449500
H     1.298700    6.382700    8.777200
H    -0.021700    6.785100    7.966400
Cl    2.905500   -0.555100    8.002500
Cl    3.637200    0.502900   10.616600
C     2.425500   -0.381800    9.703200
H     1.560800    0.097700    9.753200
H     2.301900   -1.278800   10.103000
Cl    2.416200    9.099200    9.467500
Cl    2.281100    9.414100   12.332900
C     2.893100    8.419500   11.022100
H     2.534600    7.499700   11.108200
H     3.880700    8.370000   11.076300

QM/MM links (counting starts at zero)
  1   67
  2   61
  3   64
  4   70
  9   89
  9   93
 31  103
 32   97
 33  100
 34  106
 59  125
 59  129
