73
QM: 50 at, MM: 23 at, Links: 3
Fe   -0.341600    4.321100    1.024500
N    -0.559700    6.192900    0.384800
N    -1.060500    5.112000    2.692200
N     1.435300    5.050100    1.594800
N    -2.283600    4.067300    0.316400
N     0.369200    3.995400   -0.901200
N     0.068200    2.663300    1.983400
C    -1.702600    4.509400    3.703500
C    -2.094200    5.214400    4.814800
C    -1.859400    6.558800    4.889500
C    -1.214600    7.207500    3.840200
C    -0.817000    6.442100    2.764300
C    -0.014400    6.932800    1.585900
C     1.377200    6.390200    1.778300
C     2.477600    7.136200    2.136500
C     3.678700    6.478100    2.323900
C     3.742000    5.105600    2.147900
C     2.600300    4.427400    1.780900
C    -3.082000    2.976200    0.200000
C    -4.294000    3.033700   -0.483500
C    -4.697800    4.205600   -1.058100
C    -3.923200    5.332500   -0.907500
C    -2.740300    5.230500   -0.194900
C    -1.996200    6.483800    0.146800
C     0.256800    6.423800   -0.827800
C     0.429700    5.166600   -1.592300
C     0.727000    5.221900   -2.947900
C     0.981000    4.063100   -3.620000
C     0.966400    2.883800   -2.931400
C     0.665400    2.851900   -1.573300
C     0.400500    1.862400    2.707400
H    -1.887000    3.588800    3.651600
H    -2.525000    4.771900    5.524900
H    -2.134400    7.042500    5.647600
H    -1.058400    8.133800    3.865500
H    -0.038600    7.916300    1.480900
H     2.415000    8.066300    2.250400
H     4.447300    6.960000    2.569400
H     4.551900    4.646300    2.275800
H     2.644000    3.496900    1.658100
H    -4.834600    2.266900   -0.549300
H    -5.496100    4.241200   -1.553000
H    -4.190500    6.151900   -1.280900
H    -2.083700    7.126900   -0.587300
H    -2.386900    6.886900    0.950600
H     1.135400    6.772500   -0.568300
H    -0.179100    7.093100   -1.394800
H     0.752400    6.048800   -3.395900
H     1.160400    4.074400   -4.541400
H     1.164700    2.081200   -3.382000
C     0.828400    0.817500    3.635100
C    -2.692800    1.695000    0.870800
C     0.696700    1.558100   -0.848000
H     0.373000   -0.011200    3.420000
H     0.608700    1.080000    4.541400
H     1.786600    0.690000    3.559200
H    -1.787100    1.460600    0.617700
H    -3.299300    0.990000    0.597400
H    -2.740400    1.807500    1.834000
H     1.214500    1.657500   -0.034200
H     1.105600    0.883100   -1.411300
H    -0.208700    1.291900   -0.625300
Cl   -2.721800    0.456200    5.143200
O    -4.062900    0.223100    5.560300
O    -1.855900   -0.277500    5.937500
O    -2.459200    1.807500    5.179300
O    -2.508000   -0.015000    3.859200
Cl    4.636300    1.120300    2.157400
O     4.213100    1.571300    3.406000
O     5.375800    0.046900    2.283400
O     3.440100    0.860600    1.442900
O     5.313400    2.175000    1.515100
O     0.310000    1.946300    6.780500

QM/MM links (counting starts at zero)
 18   51
 29   52
 30   50
