108
QM: 10 at, MM: 98 at, Links: 8
Fe    6.149400    6.086800    5.394300
P     6.159200    3.776500    5.354100
O     4.227600    6.086800    5.889300
C     4.977000    6.086800    6.914800
N     4.572700    6.086800    8.156400
C     6.078600    6.086800    3.572000
O     5.974100    6.086800    2.440600
C     7.894000    6.086800    5.652500
O     9.036400    6.086800    5.793300
P     6.159200    8.397000    5.354100
C     3.099600    6.086800    8.507700
H     3.033400    6.086800    9.496200
C     2.410800    4.835300    8.011300
H     2.877400    4.053800    8.348400
H     2.418800    4.823100    7.041400
H     1.493300    4.823100    8.327700
C     5.552100    6.086800    9.272500
H     6.457600    6.086800    8.872100
C     5.426700    4.825600   10.107100
H     5.513200    4.048900    9.533300
H     4.560200    4.811000   10.542500
H     6.126600    4.811000   10.778100
C     7.968400    3.514500    3.255600
H     8.439200    4.198900    3.696400
C     8.471800    2.969100    2.080600
H     9.283300    3.284400    1.726000
C     7.775200    1.957300    1.430300
H     8.115900    1.587400    0.635000
C     6.575200    1.491000    1.954000
H     6.104300    0.805900    1.514300
C     6.071800    2.036600    3.129000
H     5.260200    1.721300    3.484700
C     6.768300    3.048500    3.780400
C     3.520700    3.522500    4.628100
H     3.740100    4.175300    3.987700
C     2.229800    3.009800    4.683700
H     1.576400    3.316100    4.081500
C     1.905700    2.044400    5.629600
H     1.033000    1.697000    5.666700
C     2.872500    1.591800    6.519900
H     2.653200    0.939800    7.159200
C     4.163300    2.104600    6.464300
H     4.816800    1.799200    7.066500
C     4.487500    3.069900    5.518300
C     7.403800    1.513700    6.414100
H     7.060000    1.068800    5.661300
C     8.129700    0.807800    7.366500
H     8.276700   -0.114200    7.257400
C     8.639200    1.465700    8.480400
H     9.130900    0.988500    9.124100
C     8.422700    2.829100    8.641900
H     8.767400    3.274700    9.394700
C     7.696700    3.534900    7.689500
H     7.550700    4.457000    7.798600
C     7.187300    2.877300    6.575500
C     6.768300    9.125000    3.780400
C     7.968400    8.659000    3.255600
H     8.439200    7.974600    3.696400
C     8.471800    9.204400    2.080600
H     9.283300    8.889100    1.726000
C     7.775200   10.216200    1.430300
H     8.115900   10.586100    0.635000
C     6.575200   10.682500    1.954000
H     6.104300   11.367600    1.514300
C     6.071800   10.136900    3.129000
H     5.260200   10.452200    3.484700
C     4.487500    9.103600    5.518300
C     3.520700    8.651000    4.628100
H     3.740100    7.998200    3.987700
C     2.229800    9.163700    4.683700
H     1.576400    8.857400    4.081500
C     1.905700   10.129100    5.629600
H     1.033000   10.476500    5.666700
C     2.872500   10.581700    6.519900
H     2.653200   11.233700    7.159200
C     4.163300   10.068900    6.464300
H     4.816800   10.374300    7.066500
C     7.187300    9.296200    6.575500
C     7.403800   10.659800    6.414100
H     7.060000   11.104700    5.661300
C     8.129700   11.365700    7.366500
H     8.276700   12.287700    7.257400
C     8.639200   10.707800    8.480400
H     9.130900   11.185000    9.124100
C     8.422700    9.344400    8.641900
H     8.767400    8.898800    9.394700
C     7.696700    8.638600    7.689500
H     7.550700    7.716500    7.798600
C     2.410800    7.338200    8.011300
H     2.877400    8.119700    8.348400
H     2.418800    7.350400    7.041400
H     1.493300    7.350400    8.327700
C     5.426700    7.347900   10.107100
H     5.513200    8.124600    9.533300
H     4.560200    7.362500   10.542500
H     6.126600    7.362500   10.778100
P     1.706700    6.086800    1.133600
F     0.197300    6.086800    1.575400
F     1.989600    7.209100    2.184200
F     1.367500    7.204300    0.092700
F     3.177400    6.086800    0.687300
F     1.989600    4.964400    2.184200
F     1.367500    4.969200    0.092700
C     1.941200    2.215600   11.708800
H     2.536500    2.627000   12.371000
H     1.245700    2.868100   11.485100
Cl    2.857600    1.847700   10.271900
Cl    1.220000    0.859000   12.388500

QM/MM links (counting starts at zero)
  1   32
  1   43
  1   54
  4   10
  4   16
  9   55
  9   66
  9   77
