88
QM: 21 at, MM: 67 at, Links: 8
Fe    8.222900    9.687600    3.672600
O    10.066100   11.933900    3.693700
O     5.618300    9.596200    4.976200
O    11.002400    9.801000    4.570500
O     6.422200    7.427300    4.064100
O    10.682900   10.075500    2.142600
O     5.589300    9.196900    2.529900
N     8.800800   11.468600    4.049300
N     6.810700   10.293200    4.805700
N     9.805300    9.091600    4.584500
N     7.723300    7.899100    4.161400
N     9.337000    9.740000    2.112300
N     6.919800    9.510300    2.277300
C     8.098900   12.194500    4.898400
C     6.860400   11.519900    5.276300
C     9.877300    7.829800    4.946500
C     8.597700    7.140600    4.801200
C     8.785100    9.583000    0.926400
C     7.338500    9.394400    1.033600
B    11.048000   10.795600    3.432000
B     5.412500    8.555700    3.890500
C    12.522600   11.402200    3.295000
H    13.164600   10.673200    3.162500
H    12.750800   11.893600    4.112100
H    12.555900   12.010800    2.526900
C     3.935400    7.959200    4.002300
H     3.820300    7.532700    4.877200
H     3.797000    7.295700    3.294600
H     3.282500    8.683600    3.904100
C     5.743000   12.202000    6.015900
H     6.125300   12.821700    6.686100
H     5.208200   11.523000    6.499000
C     4.824300   12.988500    5.059800
H     4.292500   12.342200    4.530600
H     4.191500   13.524000    5.600500
C     5.553100   13.925900    4.094400
H     4.879900   14.393800    3.539200
H     6.114500   13.380700    3.486900
C     6.453500   14.987200    4.779100
H     6.250500   15.870400    4.381500
H     6.208400   15.030300    5.737800
C     7.963900   14.749100    4.679200
H     8.425500   15.561300    5.006700
H     8.195900   14.643400    3.722300
C     8.527100   13.533200    5.447600
H     9.516300   13.580000    5.433100
H     8.239100   13.594500    6.393100
C     8.317600    5.748700    5.323900
H     7.355400    5.679700    5.546900
H     8.829900    5.613300    6.160300
C     8.680400    4.619900    4.327900
H     8.338300    3.765400    4.692800
H     8.199700    4.791700    3.479100
C    10.176300    4.438500    4.003800
H    10.284600    3.602000    3.486900
H    10.669300    4.326700    4.855000
C    10.832400    5.596100    3.205600
H    11.344300    5.206600    2.453600
H    10.113000    6.155300    2.817200
C    11.770300    6.505700    4.010500
H    12.069300    7.245900    3.425400
H    12.573000    5.984700    4.265100
C    11.151300    7.105500    5.284600
H    10.960800    6.383700    5.934000
H    11.792000    7.734500    5.701200
C     6.440600    9.076600   -0.135800
H     6.752700    9.580800   -0.928600
H     5.520500    9.377200    0.071900
C     6.412300    7.571100   -0.477400
H     6.245900    7.064600    0.357100
H     5.646100    7.403000   -1.083000
C     7.681400    7.012300   -1.137200
H     7.911500    7.590100   -1.906900
H     7.474800    6.112400   -1.494900
C     8.939100    6.895600   -0.219100
H     8.645300    6.962400    0.724600
H     9.336100    5.996900   -0.344000
C    10.032300    7.950200   -0.465000
H    10.407300    7.810000   -1.370700
H    10.763500    7.803900    0.187000
C     9.557500    9.418900   -0.350400
H    10.339000   10.027000   -0.351800
H     8.983300    9.648000   -1.123500
Cl   14.976300   15.064900   -0.404100
Cl   15.333000   12.429300    0.883000
C    15.121900   13.308400   -0.652600
H    15.895800   13.125800   -1.241200
H    14.308200   12.975700   -1.107800

QM/MM links (counting starts at zero)
 13   44
 14   29
 15   62
 16   47
 17   80
 18   65
 19   21
 20   25
