78
QM: 47 at, MM: 31 at, Links: 3
Fe   -0.035300   12.916300   10.697500
O     2.823400   13.422600   10.430600
N    -1.944100   12.365900   11.034900
N     0.233700   12.908100   12.670800
N    -0.405700   14.760600   11.076000
N    -0.519000   13.509600    8.873300
N     0.969600   10.172900    9.779800
N    -1.056800   10.308000   10.555800
C     0.091000   11.040900   10.298300
C     1.699800   13.226500   10.498500
C     0.569000   11.862500   13.441400
C     0.747400   11.984700   14.809200
C     0.589900   13.219100   15.408100
C     0.244600   14.310900   14.623200
C     0.053100   14.138800   13.273400
C    -0.316600   15.204800   12.329400
C    -0.579500   16.542800   12.611800
C    -0.869500   17.392200   11.557000
C    -0.963300   16.920300   10.257200
C    -0.745300   15.571200   10.048000
C    -0.859900   14.834700    8.785700
C    -1.305400   15.376900    7.589600
C    -1.409500   14.562600    6.472200
C    -1.025000   13.257900    6.554400
C    -0.583500   12.776700    7.764800
C    -2.964000   13.159800   11.383600
C    -4.219200   12.684200   11.709000
C    -4.422300   11.318500   11.712500
C    -3.386800   10.474600   11.351400
C    -2.178300   11.026100   11.000900
C    -0.885300    8.957000   10.187500
C     0.413100    8.886700    9.697600
H     0.685300   11.011200   13.035600
H     0.975900   11.224100   15.331200
H     0.717600   13.319000   16.345000
H     0.142000   15.169600   15.016600
H    -0.561500   16.864800   13.505800
H    -1.006600   18.315700   11.728600
H    -1.166400   17.503300    9.534900
H    -1.536100   16.296600    7.536000
H    -1.745000   14.910500    5.653300
H    -1.062900   12.693500    5.792800
H    -0.307300   11.868100    7.813100
H    -2.817100   14.098100   11.408600
H    -4.923800   13.282000   11.927100
H    -5.265000   10.961300   11.959300
H    -3.511300    9.532600   11.346000
C    -1.684800    7.830000   10.255400
C    -1.122200    6.630800    9.792300
C     0.166200    6.575300    9.302400
C     0.965100    7.702300    9.250600
C     2.313500   10.493100    9.291700
H    -2.568700    7.865200   10.596900
H    -1.642900    5.836900    9.815600
H     0.511800    5.746200    8.996700
H     1.855400    7.663500    8.921600
H     2.732100    9.701000    8.975300
H     2.828800   10.861300    9.999700
H     2.252200   11.124100    8.583700
Cl    4.733400   10.471800   13.102400
C     6.160700    9.510400   13.409300
H     5.997600    8.962600   14.167300
Cl    7.588000   10.471800   13.716100
H     6.323800    8.962600   12.651200
P     3.223400   17.239400   12.670500
F     2.192700   18.171200   11.889700
F     2.149700   16.998600   13.816000
F     2.684900   15.982400   11.853400
F     4.264600   16.320700   13.439600
F     4.314100   17.508400   11.515300
F     3.765200   18.519600   13.464700
P     4.988700    7.286700   10.028500
F     3.805200    8.015800   10.817200
F     4.054400    5.998800    9.853100
F     5.538900    6.718300   11.423400
F     6.153200    6.538300    9.264900
F     5.902400    8.594300   10.207100
F     4.432100    7.873500    8.649000

QM/MM links (counting starts at zero)
  6   51
 30   47
 31   50
