53
QM: 28 at, MM: 25 at, Links: 0
Fe    1.688800    0.440900   10.029300
P     2.833500   -0.875900    8.587700
P     2.480700    2.159200    8.817300
P     0.494400    1.756500   11.478800
P     3.279000    0.350100   11.625600
S    -0.253000    0.192400    8.798600
S     0.586100   -1.438700   10.843500
C     4.022000    0.125500    7.710800
C     3.554000    1.553400    7.439900
C     3.943700   -2.165200    9.044200
C     3.103800   -3.568000    9.253800
C     1.928200   -1.571300    7.148900
C     2.674900   -2.275100    5.998300
C     3.608600    3.357700    9.572800
C     4.267900    4.503600    8.812000
C     1.330400    3.246500    7.900300
C     0.760300    2.828300    6.652400
C     1.279800    1.536600   13.125900
C     2.832700    1.529500   12.969700
C     0.459900    3.584700   11.324000
C    -0.229600    4.398400   12.519900
C    -1.238600    1.410000   11.873900
C    -2.356400    2.045700   11.023700
C     3.250700   -1.173400   12.605300
C     4.261300   -1.376500   13.763900
C     5.043100    0.609400   11.353300
C     5.806000    1.536600   12.422500
C    -0.609000   -1.181800    9.716900
B     3.907900   17.016600    3.243400
C     4.052500   17.443200    1.647100
C     4.964000   16.808700    0.800800
C     5.099300   17.234000   -0.521900
C     4.325900   18.291500   -0.997100
C     3.414400   18.924800   -0.150800
C     3.279200   18.500600    1.170600
C     2.311000   17.246000    3.711900
C     1.322200   16.670000    2.915100
C    -0.022000   16.819400    3.254100
C    -0.377500   17.544700    4.392600
C     0.611300   18.119500    5.190800
C     1.955600   17.970100    4.850500
C     4.871200   18.050200    4.187100
C     5.322500   17.628400    5.437700
C     5.984200   18.522100    6.278600
C     6.191700   19.840100    5.870200
C     5.740400   20.261900    4.619500
C     5.078700   19.366900    3.777300
C     4.380500   15.426200    3.454300
C     3.440400   14.403300    3.574400
C     3.860600   13.077000    3.675900
C     5.220900   12.773500    3.657200
C     6.163900   13.796300    3.537100
C     5.743700   15.122700    3.435600

QM/MM links (counting starts at zero)
