90
QM: 20 at, MM: 70 at, Links: 7
Fe    8.874300    0.675400    2.062700
H     7.676800   -0.806900   -0.100500
P    10.969900    1.271400    2.159200
H     6.588900    0.970400    0.150700
P     9.097500   -0.152300    4.047200
P     8.278500    2.664300    2.832500
C     9.456900    1.165500    5.291400
H     8.617700    1.549500    5.589800
H     9.884600    0.758900    6.061200
C    11.501900    1.752800    3.872500
H    11.890400    0.977600    4.307400
H    12.194300    2.429000    3.805000
C    10.361700    2.299300    4.761600
C     9.548000    3.363600    3.986400
H    10.162700    3.912800    3.475600
H     9.101700    3.939700    4.626400
B     7.508500    0.187900    0.522600
H     9.175300   -0.663900    1.658200
H     8.666200    0.102100    0.469000
H     7.379200    0.020400    1.691700
C    12.278000    0.067400    1.669300
C     7.694300   -1.049000    4.832300
C     6.775900   -1.744600    4.055100
H     6.866000   -1.757500    3.130300
C     7.129400    3.843700    0.606300
H     6.783700    2.993100    0.461200
C    11.651100   -3.349300    3.539200
H    11.806600   -3.978100    2.871100
C     8.125300    6.392300    1.025100
H     8.458000    7.248700    1.170200
C    11.982600   -0.888700    0.695100
H    11.128600   -0.924000    0.328700
C    10.743500    3.054100    0.016700
H     9.946900    2.603900   -0.149500
C     7.968500    4.072500    1.694100
C     7.552000   -1.061300    6.215800
H     8.169500   -0.607600    6.742800
C     6.454500    4.019400    4.524100
H     7.018700    4.750800    4.418300
C    12.952300   -1.785500    0.269700
H    12.743500   -2.420800   -0.377300
C    11.186000   -1.472900    5.508900
H    11.036900   -0.851000    6.184500
C    11.505600    2.712000    1.130600
C     6.748000    2.828400    3.865800
C     5.336000    4.132800    5.334800
H     5.161200    4.929500    5.781500
C    13.568100    0.107300    2.194200
H    13.782700    0.742200    2.837900
C    10.993100    2.985700    5.981300
H    10.299800    3.292600    6.570400
H    11.521000    3.732600    5.691200
H    11.553200    2.359200    6.446500
C    12.699000    3.403500    1.378500
H    13.222100    3.184300    2.115900
C     6.804300    4.875400   -0.263000
H     6.248900    4.711800   -0.991100
C    14.531400   -0.785500    1.770400
H    15.387600   -0.748900    2.131100
C     5.724000   -2.420800    4.658100
H     5.106700   -2.878500    4.134900
C    12.319900    4.741600   -0.603000
H    12.589900    5.418300   -1.180100
C    10.436800   -1.404500    4.334800
C     5.590500   -2.415700    6.039900
H     4.883900   -2.868400    6.440500
C     4.743600    1.874400    4.808800
H     4.165900    1.152200    4.904400
C    13.095800    4.420800    0.512500
H    13.882700    4.888800    0.678000
C     8.457200    5.363600    1.892700
H     9.013700    5.537400    2.616800
C     5.865800    1.760000    4.001500
H     6.029400    0.965200    3.547600
C     4.481500    3.054100    5.472100
H     3.728400    3.124800    6.013200
C     7.304900    6.148100   -0.050200
H     7.085900    6.837600   -0.634100
C    12.374100   -3.395300    4.696600
H    13.016000   -4.056900    4.820800
C    11.156000    4.057200   -0.845900
H    10.643600    4.266900   -1.591900
C    12.145400   -2.450500    5.684800
H    12.642800   -2.475300    6.471300
C    14.226400   -1.739500    0.802300
H    14.875300   -2.341400    0.516600
C    10.679000   -2.363600    3.353300
H    10.187400   -2.346300    2.563600
C     6.508100   -1.736500    6.822100
H     6.423600   -1.734800    7.747500

QM/MM links (counting starts at zero)
  2   20
  2   43
  4   21
  4   63
  5   34
  5   44
 12   49
