88
QM: 53 at, MM: 35 at, Links: 4
Fe   10.186900    1.311300    8.927700
N    10.925400    3.236400    8.680800
N    11.182000    1.001900    7.331700
N    10.159800   -0.773400    9.016100
N    11.824000    1.044600    9.867100
C    11.209900    3.369300    7.214200
H    10.385100    3.636500    6.735400
H    11.894400    4.070500    7.066900
C    11.702000    2.062300    6.684400
C    12.572700    1.884800    5.619600
H    12.948200    2.631600    5.168600
C    12.883700    0.589100    5.228400
H    13.465500    0.446800    4.490200
C    12.353900   -0.494800    5.904100
H    12.568900   -1.382400    5.643500
C    11.500900   -0.252600    6.972500
C    10.813600   -1.318000    7.773400
H    11.475800   -2.007900    8.032000
H    10.126700   -1.754400    7.210200
C    10.972400   -1.137100   10.216300
H    11.318100   -2.059000   10.119700
H    10.406200   -1.101500   11.027200
C    12.117400   -0.177400   10.353900
C    13.334700   -0.426000   10.962700
H    13.532200   -1.282100   11.324100
C    14.256600    0.599300   11.033500
H    15.093200    0.452300   11.458500
C    13.970200    1.841800   10.489100
H    14.615100    2.538600   10.501100
C    12.722300    2.040200    9.928100
C    12.213300    3.366800    9.453300
H    12.897800    3.789700    8.876800
H    12.065800    3.957500   10.233600
N     8.440600    1.683600    7.999000
N     9.091000    1.641300   10.547700
C     7.493500    2.071700    8.875600
C     6.098200    2.553200    8.760900
C     5.200600    2.818200    7.752100
H     5.450300    2.700900    6.842900
C     3.896000    3.269000    8.086300
H     3.277500    3.434000    7.384300
C     3.494200    3.476500    9.381400
H     2.614300    3.786000    9.562900
C     4.391600    3.227600   10.446700
C     4.133900    3.399400   11.834200
H     3.283800    3.707600   12.125400
C     5.111000    3.121500   12.750400
H     4.923000    3.262600   13.670400
C     6.399400    2.628700   12.386000
H     7.052700    2.440100   13.048300
C     6.672700    2.433000   11.047800
C     7.829800    1.997300   10.243400
C     5.666100    2.748300   10.100900
C    10.016300    4.331300    9.103700
H     9.806600    4.232800   10.055700
H     9.189000    4.289400    8.579800
H    10.453700    5.195700    8.954900
C     8.810700   -1.380700    9.153300
H     8.895000   -2.356200    9.205700
H     8.263200   -1.141600    8.376300
H     8.382600   -1.045000    9.968600
C     8.259000    1.836500    6.606100
C     8.520500    0.759200    5.755400
H     8.732700   -0.089400    6.127400
C     8.476100    0.906900    4.386000
H     8.663400    0.164100    3.824600
C     8.158400    2.134700    3.820800
H     8.146800    2.241300    2.877400
C     7.859600    3.200400    4.650500
H     7.618400    4.037700    4.272600
C     7.909000    3.056500    6.023500
H     7.702000    3.798800    6.579200
C     9.417200    1.381600   11.902600
C    10.493100    2.030000   12.512100
H    11.004300    2.662600   12.021700
C    10.816100    1.752200   13.826700
H    11.551500    2.195700   14.232300
C    10.082300    0.834200   14.562800
H    10.301300    0.660200   15.470100
C     9.023800    0.174000   13.956100
H     8.521800   -0.466900   14.447300
C     8.695300    0.441900   12.642500
H     7.970300   -0.018200   12.236800
Cl    0.478600    4.712800    6.610600
O     0.875500    4.107000    5.386400
O     0.448100    3.709800    7.636000
O    -0.823100    5.278900    6.457200
O     1.409700    5.738100    6.912500

QM/MM links (counting starts at zero)
  1   53
  3   57
 33   61
 34   72
