157
QM: 148 at, MM: 9 at, Links: 0
K    14.586200   10.491900    6.840100
Fe   12.185700    7.034000    9.395100
O    15.035300    9.651100    4.231300
O    12.463600   10.436200    4.932300
O    12.009400   11.296900    7.554500
O    14.172600   12.408200    9.007200
O    16.712100   11.831200    8.150300
O    17.233400   10.873900    5.554400
O    15.732600    8.578400    8.425200
O    13.601600    7.986700    8.331400
O    13.773200    6.633300   10.549500
O    15.920300    7.135700   10.792000
C    13.971800    9.667600    3.294800
H    14.124300    8.994600    2.613400
H    13.929300   10.535200    2.861000
C    12.697000    9.393900    3.992800
H    11.968800    9.355500    3.352300
H    12.746200    8.540900    4.450900
C    11.209100   10.299500    5.581700
H    11.173200    9.450400    6.050600
H    10.495700   10.315700    4.924700
C    11.032300   11.413100    6.543800
H    11.128100   12.263600    6.087600
H    10.144800   11.375100    6.934700
C    11.859300   12.266000    8.574300
H    10.985500   12.181300    8.988600
H    11.934700   13.158500    8.200000
C    12.920300   12.046900    9.577400
H    12.747400   12.586500   10.364100
H    12.933800   11.115600    9.844500
C    15.239600   12.253900    9.925400
H    15.303700   11.328700   10.207100
H    15.085600   12.803900   10.710100
C    16.497400   12.671600    9.248900
H    16.423500   13.593200    8.952600
H    17.243500   12.607600    9.866000
C    17.955800   12.006600    7.511800
H    18.661800   12.058900    8.175600
H    17.951400   12.833400    7.005900
C    18.204100   10.875800    6.612100
H    19.094300   10.946700    6.236800
H    18.148800   10.043500    7.108200
C    17.347200    9.746100    4.713200
H    17.226400    8.935500    5.232700
H    18.232900    9.720600    4.316400
C    16.321400    9.814700    3.643800
H    16.372300   10.672400    3.191500
H    16.477100    9.114900    2.989700
C    14.762900    7.989400    8.870700
C    14.865900    7.182000   10.194500
K     7.989600    7.386000    6.840100
K    13.977700    3.226200    6.840100
O     8.493200    8.195400    4.231300
O    13.025000    3.257600    4.231300
O     9.099100    5.575700    4.932300
O    14.990700    5.092200    4.932300
O     8.580900    4.752000    7.554500
O    15.963200    5.055300    7.554500
O     6.536900    6.069800    9.007200
O    15.844000    2.626200    9.007200
O     5.766800    8.557500    8.150300
O    14.074600    0.715400    8.150300
O     6.335200    9.487600    5.554400
O    12.984900    0.742700    5.554400
O     9.073600    9.335600    8.425200
O    11.747300    3.190100    8.425200
O    10.651600    7.786000    8.331400
O    12.300400    5.331500    8.331400
O    11.737800    8.611300   10.549500
O    11.042400    5.859600   10.549500
O    10.404100    3.748900   10.792000
O    10.229100   10.219500   10.792000
C     9.010700    7.266200    3.294800
C    13.571000    4.170400    3.294800
H     9.517300    7.734700    2.613400
H    12.911900    4.374900    2.613400
H     8.280600    6.795500    2.861000
H    14.343600    3.773400    2.861000
C     9.885200    6.299000    3.992800
C    13.971400    5.411300    3.992800
H    14.302200    6.061100    3.352300
H    10.282500    5.687600    3.352300
H    13.208000    5.795200    4.450900
H    10.599300    6.768100    4.450900
C     9.844800    4.557700    5.581700
C    15.499500    6.247000    5.581700
H    10.598100    4.951000    6.050600
H    14.782200    6.702700    6.050600
H    10.187500    3.931700    4.924700
H    15.870300    6.856700    4.924700
C     8.968800    3.847700    6.543800
C    16.552400    5.843300    6.543800
H     8.184300    3.505400    6.087600
H    17.241100    5.335100    6.087600
H     9.445400    3.098100    6.934700
H    16.963300    6.630900    6.934700
C     7.816700    4.137500    8.574300
C    16.877500    4.700700    8.574300
H     8.326900    3.423100    8.988600
H    17.241100    5.499700    8.988600
H     7.006100    3.756500    8.200000
H    17.612700    4.189200    8.200000
C     7.475900    5.165900    9.577400
C    16.157300    3.891400    9.577400
H    16.711000    3.771300   10.364100
H     7.095000    4.746300   10.364100
H    15.343900    4.345300    9.844500
H     8.275700    5.643300    9.844500
C     6.137000    7.071000    9.925400
C    15.176900    1.779300    9.925400
H     6.906200    7.589100   10.207100
H    14.343600    2.186400   10.207100
H     5.737700    6.662600   10.710100
H    15.730200    1.637700   10.710100
C     5.146400    7.951400    9.248900
C    14.909700    0.481200    9.248900
H     4.385200    7.426600    8.952600
H    15.744800    0.084400    8.952600
H     4.828700    8.629500    9.866000
H    14.481300   -0.133000    9.866000
C     4.993100    9.546900    7.511800
C    13.604600   -0.449300    7.511800
H     4.594800   10.132100    8.175600
H    13.296900   -1.086900    8.175600
H     4.279200    9.129700    7.005900
H    14.322900   -0.858900    7.005900
C     5.848200   10.327300    6.612100
C    12.501200   -0.099000    6.612100
H    12.117500   -0.905400    6.236800
H     5.341700   11.062800    6.236800
H    11.808000    0.365100    7.108200
H     6.596700   10.695600    7.108200
C    11.951300    1.208000    4.713200
C     7.255000   10.150100    4.713200
H    11.309700    1.717900    5.232700
H     8.017400   10.450800    5.232700
H    11.486300    0.453700    4.316400
H     6.834300   10.929900    4.316400
C    12.523600    2.062100    3.643800
C     7.708500    9.227400    3.643800
H    13.240900    1.589100    3.191500
H     6.940300    8.842600    3.191500
H    11.839700    2.277100    2.989700
H     8.236700    9.712100    2.989700
C    10.068500    8.790300    8.870700
C    11.722100    4.324500    8.870700
C    10.716300    9.283300   10.194500
C    10.971300    4.638900   10.194500
O    18.384500    8.708000    9.464300
H    17.555400    8.673800    9.211900
H    18.538700    8.253800   10.176900
O     8.947600   13.331500    4.549400
H     8.921500   14.160900    4.240400
H     8.113700   13.589000    4.679000
O    18.450600    6.839200    2.009100
H    17.579800    6.668900    1.900900
H    18.423000    6.795500    2.895200

QM/MM links (counting starts at zero)
