78
QM: 53 at, MM: 25 at, Links: 2
Fe    1.754400    0.332500    3.866700
N     2.774500    1.548800    5.420900
N     1.415800   -0.750200    5.667100
N     0.392000   -0.488600    2.428900
N     2.735100    1.897500    2.790900
N     4.223400   -3.637600    1.218700
O     0.207400    1.454800    4.114500
O     3.121600   -0.913000    3.344100
O    -0.055500   -1.978400    0.686500
C     2.692400    2.946900    4.951500
H     3.328600    3.493800    5.437900
H     1.803100    3.296700    5.116400
C     2.996000    3.004600    3.471500
C     3.481200    4.127500    2.845400
H     3.670600    4.895600    3.334500
C     3.680700    4.100400    1.495400
H     4.009000    4.852000    1.055100
C     3.396300    2.971900    0.798000
H     3.511400    2.946200   -0.124400
C     2.939800    1.873000    1.467400
H     2.766600    1.091500    0.995100
C     1.967900    1.357400    6.650900
H     1.157900    1.889100    6.596400
H     2.474000    1.655800    7.422400
C     1.613200   -0.085100    6.808900
C     1.481100   -0.704700    8.040100
H     1.651100   -0.237900    8.826900
C     1.093600   -2.020100    8.075000
H     0.990000   -2.450300    8.894000
C     0.857400   -2.699200    6.919300
H     0.578600   -3.586500    6.936000
C     1.044400   -2.037000    5.716000
H     0.908700   -2.498400    4.919400
C    -0.877600    1.257900    3.340100
C    -0.831700    0.194200    2.431700
C    -1.981100   -0.081400    1.664500
H    -1.995300   -0.803700    1.078900
C    -3.077000    0.730400    1.793100
H    -3.833300    0.543100    1.284300
C    -3.102600    1.799500    2.633000
H    -3.854500    2.346500    2.672100
C    -1.999800    2.068600    3.433800
H    -2.013400    2.784800    4.027700
C     3.098800   -1.870900    2.421900
C     4.253300   -2.667900    2.155000
C     3.126900   -3.847300    0.480800
H     3.136000   -4.509400   -0.171900
C     0.636500   -3.078400    0.009800
H     0.714900   -2.907900   -0.941900
H     0.168900   -3.917800    0.142500
C     0.730900   -1.461500    1.646300
C     1.999600   -2.116100    1.642100
C     1.991900   -3.104100    0.668000
C     4.184900    1.083100    5.579000
H     4.618600    1.133900    4.712500
H     4.166800    0.148600    5.837600
C     5.033800    1.820800    6.567100
C     5.107100    1.447400    7.897500
H     4.599400    0.729600    8.199400
C     5.926100    2.125800    8.787800
H     5.956900    1.866200    9.679400
C     6.684000    3.169300    8.355900
H     7.242800    3.615300    8.951300
C     6.626000    3.561700    7.060400
H     7.133600    4.285800    6.772500
C     5.824300    2.895600    6.175800
H     5.807900    3.169300    5.286900
C     5.483800   -2.484200    2.922300
H     5.363500   -1.770600    3.552600
H     6.204100   -2.267700    2.325500
H     5.691000   -3.295600    3.393200
P    -0.095600    2.096700   10.580300
F    -0.130900    0.514900   10.636700
F     1.356900    2.019100    9.963100
F     0.499700    2.118900   12.035700
F    -1.539700    2.162300   11.155200
F    -0.651800    2.037400    9.102200
F    -0.016900    3.654100   10.511000

QM/MM links (counting starts at zero)
  1   53
 44   67
