147
QM: 73 at, MM: 74 at, Links: 0
Fe    0.000000    0.000000    4.477600
N    -0.671300    1.508300    5.551900
N     0.763300    1.500900    3.426400
C    -1.261300    1.422500    6.769900
H    -1.556200    0.588100    7.056100
N    -1.859000    2.293600    8.904800
H    -1.994100    1.493600    9.187200
H    -1.979300    2.962600    9.430100
C    -1.453700    2.503100    7.613400
C    -0.315500    2.739600    5.111300
C    -0.583600    3.882700    5.868200
H    -0.384100    4.723200    5.523600
C    -1.131100    3.770000    7.106900
H    -1.291700    4.530900    7.617100
C     0.440700    2.726100    3.866900
C     0.851700    3.857000    3.185400
H     0.604800    4.696300    3.499800
C     1.529400    1.389400    2.330700
H     1.765600    0.541600    2.029500
C     1.602900    3.761400    2.072800
H     1.860400    4.528400    1.615300
C     1.988500    2.517800    1.617200
N     2.769400    2.297300    0.485700
H     3.047400    2.962600    0.018800
H     2.976000    1.493600    0.256000
N    -0.970500   -1.335500    5.551900
N     1.641800   -0.172800    5.551900
N    -1.681500   -0.089400    3.426400
N     0.918200   -1.411500    3.426400
C    -0.601300   -1.803500    6.769900
C     1.862500    0.381000    6.769900
H     0.268800   -1.641800    7.056100
H     1.287400    1.053700    7.056100
N    -1.056800   -2.756800    8.904800
N     2.915800    0.463100    8.904800
H    -0.296400   -2.473700    9.187200
H     2.290500    0.980200    9.187200
H    -1.576100   -3.195400    9.430100
H     3.555300    0.232800    9.430100
C    -1.440900   -2.510500    7.613400
C     2.894600    0.007400    7.613400
C    -2.214800   -1.643000    5.111300
C     2.530300   -1.096600    5.111300
C    -3.070800   -2.446800    5.868200
C     3.654400   -1.436000    5.868200
H    -3.898400   -2.694300    5.523600
H     4.282500   -2.029000    5.523600
C    -2.699400   -2.864600    7.106900
C     3.830500   -0.905400    7.106900
H    -3.278000   -3.384100    7.617100
H     4.569700   -1.146800    7.617100
C    -2.581200   -0.981400    3.866900
C     2.140500   -1.744700    3.866900
C    -3.766100   -1.190900    3.185400
C     2.914400   -2.666100    3.185400
H    -4.369500   -1.824400    3.499800
H     3.764700   -2.871900    3.499800
C    -1.967900    0.629800    2.330700
C     0.438600   -2.019200    2.330700
H    -1.351800    1.258300    2.029500
H    -0.413800   -1.799900    2.029500
C    -4.059000   -0.492500    2.072800
C     2.456000   -3.268900    2.072800
H    -4.852000   -0.653000    1.615300
H     2.991500   -3.875400    1.615300
C    -3.174700    0.463100    1.617200
C     1.186300   -2.981000    1.617200
N    -3.374200    1.249700    0.485700
N     0.604800   -3.547000    0.485700
H    -4.089400    1.157800    0.018800
H     1.042000   -4.120400    0.018800
H    -2.781400    1.830500    0.256000
H    -0.194500   -3.324000    0.256000
S    -0.000700    8.168600    5.381100
O    -0.000700    8.168600    6.849000
O     1.336300    7.926000    4.928700
O    -0.458400    9.446500    4.928700
O    -0.877900    7.132000    4.928700
N    -0.000700    8.168600   10.171800
O    -4.654600    7.728700    8.293000
N    -2.414300    7.781400    8.477500
H    -1.653200    7.688300    8.089700
C    -3.532000    7.602500    7.771500
C    -1.259100    7.608700   10.633100
H    -1.359600    7.802200   11.578200
H    -1.230100    6.644400   10.531400
N    -3.363600    7.235000    6.481900
H    -2.555800    7.173700    6.195700
C    -2.456700    8.134300    9.902600
H    -3.263200    7.769200   10.299900
H    -2.490700    9.099800    9.993000
N    -4.901500    5.806300    3.522400
C    -4.376600    6.948300    5.576400
C    -5.675300    7.379500    5.663000
H    -5.965400    7.913700    6.365200
C    -6.549000    6.969100    4.629400
H    -7.438900    7.238600    4.657600
C    -4.022200    6.143300    4.495700
H    -3.150000    5.826000    4.439200
C    -6.144300    6.219300    3.627800
H    -6.758400    5.971800    2.974600
O     2.707900    4.356900    8.293000
O     1.946700   12.418900    8.293000
N     1.542100    6.270700    8.477500
N     0.872200   10.452400    8.477500
H     1.242200    6.976400    8.089700
H     0.411000    9.839800    8.089700
C     2.255900    5.392200    7.771500
C     1.276100   11.509800    7.771500
C     1.114100    7.357500   10.633100
C     0.145000    9.538400   10.633100
H     0.996700    7.173700   11.578200
H     0.362900    9.528600   11.578200
H     1.934700    7.864700   10.531400
H    -0.704600    9.995400   10.531400
N     2.490000    5.721800    6.481900
N     0.873600   11.547800    6.481900
H     2.139100    6.452000    6.195700
H     0.416600   10.878800    6.195700
C     1.257700    6.057500    9.902600
C     1.199000   10.312700    9.902600
H     1.977100    5.541700   10.299900
H     1.286000   11.193700   10.299900
H     0.438600    5.545400    9.993000
H     2.052100    9.859400    9.993000
N     4.496100    5.104300    3.522400
N     0.405300   13.593900    3.522400
C     3.244800    4.987900    5.576400
C     1.131800   12.568400    5.576400
C     3.520700    3.647500    5.663000
C     2.154700   13.477500    5.663000
H     3.203000    3.129200    6.365200
H     2.762300   13.461600    6.365200
C     4.312900    3.096100    4.629400
C     2.236000   14.439300    4.629400
H     4.524400    2.190700    4.657600
H     2.914400   15.075200    4.657600
C     3.764700    5.697300    4.495700
C     0.257500   12.663900    4.495700
H     3.603400    6.611300    4.439200
H    -0.453400   12.067300    4.439200
C     4.760000    3.821500    3.627800
C     1.384400   14.463800    3.627800
H     5.281300    3.413500    2.974600
H     1.477000   15.119300    2.974600
O     1.818000    7.733600    2.183900
O     2.841600    5.338300   -1.029800

QM/MM links (counting starts at zero)
