74
QM: 45 at, MM: 29 at, Links: 4
C     4.515800    3.363000    8.869200
H     5.361700    3.681700    9.222100
H     4.508800    2.396900    8.952000
C     3.399800    3.928200    9.699300
H     3.476000    3.615200   10.614200
H     3.448300    4.897200    9.703200
C    -0.116400    1.969100    6.568100
H    -0.953300    1.793400    6.110600
H    -0.159800    1.546900    7.439600
C     1.019300    1.362800    5.777400
H     0.892900    0.403700    5.698500
H     1.040000    1.741000    4.884100
C    -0.393100    4.145000    5.509200
H    -0.769000    5.004800    5.755700
H    -1.102500    3.623700    5.099100
C     0.688500    4.373000    4.479900
C     0.317000    4.773900    3.216000
H    -0.580400    4.829200    2.979400
C     1.297600    5.088400    2.320800
H     1.073100    5.380200    1.467000
C     2.630900    4.969400    2.687600
H     3.317600    5.179100    2.096000
C     2.892600    4.527500    3.967300
H     3.781000    4.414100    4.215700
C     4.937600    5.102600    7.228600
H     5.225200    5.190400    6.307800
H     5.716000    5.234300    7.792500
C     3.951700    6.183500    7.522400
C     4.317100    7.441400    7.928600
H     5.213500    7.628400    8.090300
C     3.394500    8.411800    8.098200
H     3.654300    9.263100    8.368300
C     2.082900    8.137000    7.869400
H     1.430300    8.794300    7.962100
C     1.746200    6.833700    7.490900
H     0.849700    6.631100    7.352800
N     2.285000    1.643300    6.467300
N     4.432200    3.720000    7.437600
N     2.116200    3.491900    9.125500
N     0.046600    3.449400    6.745500
N     1.957400    4.254000    4.868400
N     2.639000    5.876100    7.319500
Fe    2.258800    3.757000    6.966600
H     2.217000    1.189900    7.205000
H     1.987700    2.705700    9.129400
C     3.485900    1.206900    5.718200
H     3.555900    1.725400    4.899900
H     3.385300    0.274800    5.471700
C     4.755400    1.372700    6.518800
H     5.447900    0.830100    6.110600
H     4.601300    1.029900    7.412000
C     5.264400    2.796400    6.631200
H     6.153800    2.772300    7.017600
H     5.346400    3.163300    5.737900
C     0.943100    4.060000    9.790000
H     0.934300    5.020400    9.657900
H     1.003400    3.891400   10.744300
C    -0.341500    3.474900    9.263500
H    -1.053000    3.697300    9.884600
H    -0.254500    2.508800    9.257600
C    -0.768200    3.915500    7.881300
H    -1.679500    3.616600    7.739300
H    -0.778100    4.884400    7.865500
F     3.466900    0.823000   10.842900
F     1.482300    0.678600   11.298400
F     2.091400    0.426400    9.277100
F     2.533700   -1.136100   10.792800
B     2.410400    0.161500   10.507700
F    -0.807400    8.770200    6.593700
F    -2.148100    7.285600    5.747800
F    -2.100800    7.488100    7.899000
F    -2.911200    9.049200    6.676500
B    -1.980000    8.078900    6.692300
O    -3.643100    5.337700    4.026400

QM/MM links (counting starts at zero)
 36   45
 37   51
 38   54
 39   60
