157
QM: 67 at, MM: 90 at, Links: 0
Fe    3.401200   10.580700    4.341000
N     5.253700   11.732600    5.053600
C     6.487300   11.820300    4.537300
C     6.940900   10.877100    3.486600
C     7.389500   12.832800    4.991800
C     6.997000   13.714400    5.958900
C     5.730600   13.622100    6.511500
C     5.265300   14.523800    7.518600
C     4.880100   12.588100    6.049800
N     2.820500   11.423300    6.224300
C     1.635500   11.249400    6.816900
C     1.163000   12.057300    7.838600
C     1.946200   13.095900    8.249400
C     3.185200   13.303600    7.682200
C     4.033900   14.359100    8.060300
C     3.610100   12.421900    6.649700
N     1.638600    9.224500    4.057400
C     0.529900    9.427600    3.344800
C     0.404500   10.600100    2.443200
C    -0.543000    8.482900    3.435700
C    -0.415700    7.315000    4.213800
C     0.793700    7.076500    4.937300
C     0.971900    5.951700    5.697100
C     1.806800    8.064300    4.850000
N     3.986300    8.789100    5.413500
C     5.159500    8.596700    6.068000
C     5.423700    7.485800    6.766000
C     4.442500    6.533300    6.886000
C     3.228800    6.668700    6.286100
C     2.186300    5.739400    6.347900
C     3.043200    7.890500    5.526300
N     4.054900   10.487800    2.239600
C     4.642000    9.478400    1.592400
C     4.699300    8.153600    2.225000
C     5.225200    9.704600    0.309000
C     5.157000   10.967900   -0.309000
C     4.512100   12.040300    0.345400
C     4.367400   13.265100   -0.232700
C     3.943200   11.766400    1.639700
N     2.757300   12.494200    3.479400
C     1.974600   13.463600    4.108300
C     1.711400   14.657700    3.555700
C     2.267800   14.939200    2.294100
C     3.036900   14.034500    1.657900
C     3.604900   14.237600    0.432600
C     3.241300   12.763500    2.319600
H     8.291900   12.911200    4.624600
H     7.613100   14.413000    6.238800
H     5.843400   15.257700    7.813100
H     3.704300   15.011600    8.740200
H     1.568100   13.683700    8.940200
H     0.288800   11.891100    8.238500
H     1.053500   10.507800    6.515200
H    -1.380900    8.558200    3.035800
H    -1.126200    6.650300    4.257400
H     0.292800    5.248500    5.784400
H     2.311800    4.920800    6.835100
H     4.568400    5.711700    7.442300
H     6.277600    7.288800    7.165900
H     5.855700    9.301400    6.053400
H     5.670600    8.984500   -0.163600
H     5.560600   11.083300   -1.148900
H     4.794100   13.480600   -1.094300
H     3.463800   15.096200    0.014500
H     2.077800   15.765500    1.857800
H     1.161900   15.339300    4.032000
H     1.595300   13.262100    5.006300
B     6.929500   11.349500   16.960500
C     6.987200   12.871200   17.614900
C     7.807500   13.903700   17.156800
C     7.817700   15.167000   17.720400
C     6.987800   15.485500   18.749300
C     6.143200   14.516100   19.229200
C     6.163300   13.246700   18.669300
C     5.657500   11.244800   15.957100
C     4.988900   10.063100   15.713500
C     3.952900    9.958500   14.793600
C     3.537500   11.058600   14.077400
C     4.174500   12.257300   14.310100
C     5.230500   12.312700   15.211700
C     8.313000   11.066300   16.113400
C     9.579700   11.354100   16.633300
C    10.755000   11.100200   15.960700
C    10.731400   10.595500   14.695500
C     9.507000   10.321600   14.117400
C     8.333900   10.567800   14.815400
C     6.809300   10.275400   18.214800
C     7.844700    9.592300   18.803800
C     7.714900    8.779800   19.912700
C     6.459200    8.579800   20.476200
C     5.397200    9.210700   19.923600
C     5.532500   10.013900   18.818300
H     8.399700   13.699000   16.397000
H     8.390500   15.874800   17.364100
H     7.004900   16.356400   19.196500
H     5.564200   14.730000   19.967200
H     5.528100   12.557300   19.021900
H     5.249800    9.261400   16.186100
H     3.490500    9.102900   14.571900
H     2.775200   11.012500   13.452100
H     3.879500   13.042000   13.779300
H     5.663900   13.215900   15.342600
H     9.702800   11.697200   17.589500
H    11.637500   11.366400   16.295200
H    11.529900   10.347800   14.219200
H     9.500400    9.972300   13.212100
H     7.466400   10.417000   14.368300
H     8.790600    9.664600   18.418400
H     8.438600    8.299700   20.381700
H     6.308300    8.042800   21.236100
H     4.455700    9.090600   20.312600
H     4.752600   10.437000   18.418400
B     9.674500    9.750700    8.074900
C    10.000600   11.147900    7.282300
C    10.551000   11.198700    5.988000
C    10.913000   12.398800    5.377200
C    10.746300   13.589800    6.024300
C    10.229500   13.596000    7.300500
C     9.865400   12.405000    7.900400
C     9.366900    8.485900    7.107800
C     9.652000    7.167300    7.471300
C     9.316900    6.080900    6.682400
C     8.662400    6.259400    5.471700
C     8.358500    7.530400    5.086300
C     8.699400    8.612100    5.886200
C    11.062500    9.518400    8.965600
C    12.170200    8.844400    8.434800
C    13.407400    8.769100    9.082000
C    13.547800    9.350700   10.332600
C    12.500300   10.015400   10.888900
C    11.271000   10.093900   10.230800
C     8.334400    9.920000    9.023800
C     8.175300    9.327600   10.274500
C     7.008200    9.438400   11.038000
C     5.944000   10.158500   10.547100
C     6.046500   10.732400    9.303700
C     7.218000   10.615500    8.583900
H    10.718200   10.380100    5.497200
H    11.241000   12.421900    4.461000
H    10.992300   14.420700    5.613500
H    10.102600   14.442200    7.769500
H     9.529300   12.423500    8.805600
H    10.123500    6.985700    8.311200
H     9.525800    5.168500    6.933300
H     8.404200    5.508500    4.926400
H     7.893700    7.504200    4.242900
H     8.450400    9.503000    5.591700
H    12.072400    8.432100    7.562200
H    14.148700    8.264400    8.656600
H    14.443200    9.356800   10.743500
H    12.582100   10.332400   11.801500
H    10.597100   10.629300   10.634400
H     8.880500    8.719800   10.616200
H     6.917000    9.055200   11.921400
H     5.168300   10.264700   11.067000
H     5.275800   11.249400    8.947400
H     7.253600   11.003200    7.693100

QM/MM links (counting starts at zero)
