129
QM: 51 at, MM: 78 at, Links: 8
Fe    8.510600    3.412500    3.212700
N     9.615300    4.185700    4.610700
N     9.659200    4.183100    1.837100
N     7.406000    2.628500    1.810100
N     7.361700    2.640400    4.585600
N     8.601100    3.358700   -0.188700
N     8.472000    3.384400    6.608900
N     9.678700    1.750100    3.254900
N    12.585200   -2.730300    3.791100
N     7.341900    5.072800    3.211600
N     4.399700    9.554500    3.501800
C     9.434800    4.046200    5.976100
C    10.516900    4.694700    6.699500
C    11.368300    5.202000    5.768500
C    10.784100    4.921100    4.470700
C    11.304700    5.304900    3.241600
H    12.068400    5.836100    3.250400
C    10.790500    4.970900    2.016900
C    11.367800    5.321500    0.726400
C    10.615100    4.690300   -0.220700
C     9.546000    4.007400    0.480800
C     7.597600    2.744800    0.447200
C     6.530700    2.093500   -0.282100
C     5.694600    1.552900    0.653300
C     6.242500    1.889400    1.949600
C     5.695700    1.531900    3.175800
H     4.907700    1.039200    3.170000
C     6.239800    1.856200    4.402000
C     5.711200    1.410400    5.695500
C     6.503000    1.958500    6.639600
C     7.531900    2.727200    5.952700
C    11.027300    1.828700    3.247500
H    11.425000    2.663500    3.162700
C    11.844200    0.708900    3.362900
H    12.770700    0.788200    3.364400
C    11.226700   -0.545700    3.476900
C     9.837300   -0.630800    3.465200
H     9.411100   -1.454100    3.535400
C     9.105900    0.537400    3.345400
H     8.176700    0.482000    3.327800
C    12.012700   -1.752200    3.646400
C     5.993500    5.005000    3.118800
H     5.594700    4.172500    3.010700
C     5.180200    6.127200    3.175800
H     4.256600    6.050800    3.108600
C     5.786400    7.375600    3.336600
C     7.170900    7.460900    3.424300
H     7.592700    8.281500    3.531000
C     7.907400    6.284900    3.348300
H     8.834100    6.339000    3.395100
C     4.994900    8.584700    3.433100
C    10.610500    4.695200    8.184400
H    10.890800    3.829500    8.486900
H     9.751900    4.903900    8.558500
H    11.250200    5.354900    8.463600
C    12.721800    5.828500    5.986300
H    13.329800    5.485500    5.314000
H    13.054900    5.542500    6.853000
C    12.758400    7.342400    5.936600
H    12.290600    7.711600    6.701000
H    12.322700    7.657900    5.129900
C    14.292900    7.811200    5.952700
H    14.689000    7.555500    6.798900
H    14.769900    7.342900    5.249700
C    14.472000    9.243100    5.765600
H    14.242700    9.479100    4.863900
H    15.387100    9.475700    5.935200
H    13.902600    9.719300    6.375100
C    12.548300    6.221800    0.526100
H    12.507400    6.934300    1.182400
H    12.481800    6.627600   -0.350800
C    13.904900    5.535600    0.640100
H    13.952300    4.821400   -0.014600
H    13.982600    5.134500    1.520000
C    15.077700    6.488200    0.423800
H    15.903100    5.983100    0.489600
H    15.023900    6.845400   -0.476400
C    15.139100    7.635700    1.391300
H    14.317800    8.132100    1.351900
H    15.871600    8.211000    1.160400
H    15.265400    7.298400    2.281400
C    10.777100    4.678700   -1.704100
H    10.974100    5.566000   -2.012500
H     9.966100    4.370100   -2.113300
H    11.499000    4.090600   -1.942300
C     6.439100    2.046800   -1.771300
H     6.260400    1.146100   -2.053400
H     7.270100    2.342000   -2.152800
H     5.730200    2.621900   -2.066600
C     4.415600    0.796000    0.415100
H     4.254600    0.200900    1.163400
H     4.512400    0.252000   -0.381500
C     3.205000    1.726100    0.244100
H     3.177000    2.355400    0.980700
H     3.301700    2.231600   -0.578800
C     1.900900    0.939300    0.201700
H     1.820100    0.417300    1.014300
H     1.926800    0.323500   -0.546600
C     0.673100    1.844500    0.062800
H     0.553200    2.346400    0.872500
H    -0.103900    1.304900   -0.097900
H     0.802000    2.447400   -0.672300
C     4.551900    0.469800    5.824100
H     3.848000    0.751300    5.219000
H     4.205200    0.515600    6.727300
C     4.934400   -0.971300    5.508400
H     5.491400   -1.317100    6.223100
H     5.453400   -0.992000    4.690000
C     3.691600   -1.884600    5.346200
H     3.977400   -2.810900    5.400200
H     3.086700   -1.720300    6.085700
C     2.955500   -1.688800    4.077600
H     2.644900   -0.781800    4.025000
H     2.204000   -2.285600    4.048400
H     3.539300   -1.871700    3.336600
C     6.449300    1.831100    8.134700
H     5.589400    1.494500    8.396300
H     6.591500    2.692900    8.533700
H     7.133800    1.225300    8.428500
Cl    2.133900    3.071800    3.899600
O     2.261000    1.689500    3.478400
O     0.782900    3.500200    3.653800
O     2.451300    3.186500    5.284800
O     3.033400    3.879700    3.115900
Cl    8.657500   -0.717600    6.908500
Cl   10.999700    1.010600    6.688600
C     9.874400    0.457500    7.648000
H     9.383900    1.213900    8.006100
H    10.306000    0.013900    8.394900

QM/MM links (counting starts at zero)
 12   51
 13   55
 18   68
 19   81
 22   85
 23   89
 28  102
 29  115
