118
QM: 13 at, MM: 105 at, Links: 6
Fe    0.000000    0.000000    0.000000
O    -0.050400    1.680300    1.014100
O    -1.173800    1.172400   -1.220100
N    -0.698400    2.680700    0.343100
C    -1.261300    2.370600   -0.805400
O    -1.430000   -0.883800    1.014100
O     1.480400   -0.796500    1.014100
O    -0.428400   -1.602700   -1.220100
O     1.602200    0.430300   -1.220100
N    -1.972400   -1.945200    0.343100
N     2.670800   -0.735500    0.343100
C    -1.422300   -2.277600   -0.805400
C     2.683600   -0.093000   -0.805400
O    -4.068000    2.349300   -1.174700
O    -5.543000    2.778300    0.471300
O    -7.556300    1.314000   -1.888100
N    -6.711700    0.246300   -0.107800
C    -2.015700    3.411100   -1.576600
C    -3.412500    3.644300   -1.031100
C    -5.050900    2.032700   -0.326500
C    -5.352100    0.553600   -0.463500
C    -4.365100   -0.201700    0.412500
C    -4.420400   -1.702000    0.210500
C    -0.468900    4.022100    0.864500
C    -4.150000    4.698000   -1.811300
C    -7.734200    0.665500   -0.858900
C    -9.098300    0.288600   -0.354900
H    -2.073300    3.135500   -2.554800
H    -1.575000    4.245200   -1.565800
H    -3.366500    3.806800   -0.075700
H    -5.183800    0.275700   -1.398800
H    -3.522700    0.114700    0.153800
H    -4.559900    0.003400    1.347100
H    -4.378000   -1.904300   -0.788300
H    -5.246000   -2.061800    0.543200
H    -0.317400    3.933600    1.821800
H    -1.269500    4.551800    0.746300
H    -4.187100    4.471300   -2.775900
H    -5.021600    4.817200   -1.432400
H    -3.659200    5.515900   -1.669200
H    -6.897200   -0.188400    0.537200
H    -9.721900    0.484600   -1.017800
H    -9.186000   -0.714100   -0.056500
H    -9.230500    0.808300    0.406200
C    -3.248800   -2.417200    0.864500
C     0.736200    4.679200    0.210500
H    -3.247900   -2.241600    1.821800
H    -3.307200   -3.375300    0.746300
C     2.007900    3.881200    0.412500
H     0.539800    4.743600   -0.788300
H     0.837400    5.574100    0.543200
C     3.717700   -1.604900    0.864500
C    -1.946300   -3.451200   -1.576600
C     3.961900    0.040100   -1.576600
C     3.155500    4.358300   -0.463500
H     1.860700    2.993400    0.153800
H     2.282900    3.947300    1.347100
C     3.684200   -2.977100    0.210500
H     3.565300   -1.691900    1.821800
H     4.576700   -1.176500    0.746300
C    -1.449800   -4.777500   -1.031100
H    -1.678800   -3.363300   -2.554800
H    -2.889000   -3.486600   -1.565800
C     4.862300    1.133100   -1.031100
H     3.752100    0.227800   -2.554800
H     4.464000   -0.758600   -1.565800
N     3.569100    5.689400   -0.107800
C     4.285800    3.357800   -0.326500
H     2.830600    4.351400   -1.398800
C     2.357300   -3.679400    0.412500
H     3.838100   -2.839300   -0.788300
H     4.408600   -3.512300    0.543200
O    -0.000600   -4.697700   -1.174700
C    -1.993600   -5.943000   -1.811300
H    -1.613600   -4.818900   -0.075700
O     4.068600    2.348300   -1.174700
C     6.143600    1.245000   -1.811300
H     4.980100    1.012100   -0.075700
C     4.443400    6.365300   -0.858900
H     3.285500    6.067300    0.537200
O     5.177600    3.411300    0.471300
C     2.196600   -4.911900   -0.463500
H     1.662000   -3.108100    0.153800
H     2.277000   -3.950700    1.347100
C     0.765100   -5.390500   -0.326500
H    -1.778700   -5.861800   -2.775900
H    -1.661000   -6.757400   -1.432400
H    -2.947300   -5.926900   -1.669200
H     5.965800    1.390500   -2.775900
H     6.682600    1.940200   -1.432400
H     6.606500    0.411000   -1.669200
O     4.916100    5.887000   -1.888100
C     4.799100    7.735100   -0.354900
N     3.142600   -5.935600   -0.107800
H     2.353100   -4.627100   -1.398800
O     0.365400   -6.189600    0.471300
H     5.280600    8.177100   -1.017800
H     3.974600    8.312400   -0.056500
H     5.315300    7.589700    0.406200
C     3.290800   -7.030800   -0.858900
H     3.611700   -5.878900    0.537200
O     2.640200   -7.201000   -1.888100
C     4.299300   -8.023600   -0.354900
H     4.441200   -8.661700   -1.017800
H     5.211400   -7.598300   -0.056500
H     3.915300   -8.398000    0.406200
N     4.524700    0.915500    2.977700
C     2.107900    1.525100    3.629100
C     3.460800    1.172000    3.264100
H     1.809300    0.787700    4.232400
H     2.051600    2.402600    4.055700
H     1.574000    1.578900    2.852800
N     2.265500   -0.588400   -5.857700
C     1.331100   -1.879100   -3.881700
C     1.857300   -1.149600   -4.991900
H     2.024900   -2.489900   -3.435700
H     0.979800   -1.248400   -3.242200
H     0.399400   -2.452300   -4.256400

QM/MM links (counting starts at zero)
  3   23
  4   17
  9   44
 10   51
 11   52
 12   53
