97
QM: 51 at, MM: 46 at, Links: 0
Fe    5.858400    3.248100    7.488300
O     4.883500    4.839300    7.407500
O     4.388100    2.300100    8.211600
N     5.341700    2.691200    5.710500
N     6.478800    3.826400    9.245100
N     6.977200    1.574000    7.439600
H     6.784200    1.269100    8.144800
N     7.554600    4.145200    6.875200
H     7.382900    4.595800    6.248000
C     3.883800    5.079300    6.568100
C     3.649100    4.371300    5.383500
C     2.616000    4.802500    4.523000
H     2.484400    4.354100    3.719400
C     1.814800    5.840700    4.828000
H     1.138800    6.099300    4.243900
C     2.004600    6.510800    6.006100
H     1.448200    7.224100    6.220300
C     3.012200    6.142900    6.884400
H     3.114700    6.600400    7.686600
C     4.433000    3.242100    4.986600
H     4.274400    2.881100    4.144500
C     3.825800    2.569200    9.386200
C     4.499900    3.181700   10.448500
C     3.850000    3.313800   11.707100
H     4.315700    3.669200   12.429000
C     2.556900    2.925800   11.868400
H     2.134300    3.035400   12.689600
C     1.879200    2.371700   10.806000
H     0.991500    2.113600   10.912800
C     2.499700    2.193900    9.586700
H     2.022800    1.814500    8.884000
C     5.817200    3.734800   10.337900
H     6.220400    4.049400   11.114600
C     6.099200    1.550700    5.168600
H     6.880800    1.863900    4.687500
H     5.545400    1.038900    4.558000
C     6.512700    0.696200    6.341400
H     5.761300    0.161500    6.641800
H     7.226800    0.095100    6.075900
C     7.899700    5.178700    7.880800
H     7.302600    5.938500    7.796400
H     8.809100    5.486300    7.743700
C     7.761200    4.556400    9.259600
H     8.496600    3.948700    9.434900
H     7.754300    5.243000    9.944500
C     8.630300    3.164100    6.593700
H     9.492400    3.553800    6.810100
H     8.628900    2.939100    5.650100
C     8.416500    1.920400    7.412000
H     8.922000    1.186700    7.028500
H     8.734900    2.066500    8.316700
N     5.104500    1.363100   15.421900
N     8.129700    3.158600   12.949100
N    10.694300    0.522600   21.638300
N    13.835600    1.996700   19.111000
C     8.502300    1.892200   16.216000
C     9.873700    2.232500   16.027900
H    10.145000    2.581600   15.209800
C    10.792700    2.060800   17.009100
H    11.683500    2.273600   16.846900
C    10.408300    1.555700   18.292000
C     9.032700    1.212200   18.479100
H     8.760000    0.868100   19.298700
C     8.125400    1.372900   17.504000
H     7.238200    1.144900   17.663200
C     7.556600    2.077900   15.214800
C     6.197800    1.680200   15.353800
C     7.895300    2.668500   13.956800
C    11.349400    1.394200   19.310000
C    10.969800    0.908700   20.604300
C    12.725400    1.738800   19.169300
N     7.593000    3.989300    3.558600
N    10.738500    5.142000    0.903700
N     1.889100    4.718300   -2.493800
N     4.835900    6.434500   -5.132100
C     7.260100    4.946200    0.196500
C     5.886900    4.649800    0.432300
H     5.626400    4.341100    1.270000
C     4.953700    4.806700   -0.531900
H     4.066000    4.600000   -0.347500
C     5.309100    5.285300   -1.831100
C     6.678900    5.585200   -2.073200
H     6.932800    5.907500   -2.907900
C     7.622800    5.411800   -1.114600
H     8.513800    5.596000   -1.307400
C     8.222000    4.779100    1.196000
C     7.860200    4.335500    2.497300
C     9.612500    5.004800    1.003600
C     4.331000    5.451700   -2.818100
C     2.972800    5.053800   -2.615200
C     4.634600    5.985500   -4.103800
O     6.053800   13.037400    7.512000
H     6.299200   13.920400    7.661000
C     5.523000   12.948200    6.246200
H     5.196900   13.808600    5.973600
H     4.799400   12.316800    6.245900
H     6.202500   12.655000    5.633800

QM/MM links (counting starts at zero)
