109
QM: 93 at, MM: 16 at, Links: 4
C     9.060800   16.040200    5.756900
C     4.512500   11.369400    3.981600
C     5.726800   10.711500    3.506400
C    10.427600   14.500500    4.411300
C     8.883900   12.746500    1.027500
C     3.883000   14.571900    2.159300
C     5.823100   12.962500    6.898800
C     3.562100   13.491100    3.057700
C     9.461400   16.036800    2.232900
C     8.944400   11.295600    4.864100
C     5.655000   11.765900    6.152400
C     6.796700   10.519400    4.351900
C     6.583600   13.152300    0.328700
C     6.763600   11.057300    5.711600
C     7.572900   12.250100    0.712200
C     9.921200   15.791200    4.632500
C     5.013100   16.709100    2.597800
C     3.528100   14.019700    4.420500
C     4.068100   12.230900    2.837800
C    10.463700   13.974500    3.055600
C     5.226100   13.016500    0.847900
C     8.158200   10.672200    3.829200
C     9.983000   14.721700    1.995400
C     5.714600   15.310400    0.692900
C     8.265600   12.690800    6.765000
C     9.192700   14.091200    0.968800
C     4.049100   15.777200    2.948600
C     5.964600   11.041400    2.135400
C     8.385300   10.994200    2.501300
C     8.025700   16.980800    5.350000
C     6.883300   14.580600    0.234900
C     7.097400   13.424100    7.226100
C     8.156000   15.037000    0.544300
C     4.695200   14.347200    1.069300
C    10.158900   12.542700    3.115300
C     7.405300   14.857600    7.138200
C    10.104800   13.413600    5.311400
C     6.413500   15.754600    6.744400
C     8.311400   16.228400    1.317300
C     9.925900   12.213500    4.516800
C     7.234100   11.180600    1.617300
C     9.386600   11.941800    2.150500
C     6.744900   16.824000    5.844600
C     8.096300   11.542900    6.013200
C     9.287500   13.657500    6.394300
C     5.872800   16.463500    1.443600
C     8.765900   14.991700    6.632000
C     4.920700   11.987100    1.724600
C     7.208300   16.937300    1.768100
C     9.407200   16.580200    3.490600
Fe    2.872200   10.256100    5.071100
N     2.208700    9.872700    3.269100
N     1.442100   11.509300    5.452900
C     4.790500   13.917000    6.488700
C     4.450900   11.919800    5.281000
N     3.661800    8.499600    4.866700
C     5.071800    7.601000    3.001400
H     5.640400    7.136200    3.602900
C     3.143300    9.029000    2.605900
C     3.964500    8.295800    3.488300
C     5.086200   15.263400    6.430500
C     3.459800    9.027700    1.245200
H     2.929600    9.532900    0.640200
C     4.002400   13.284700    5.473600
C     5.343900    7.583800    1.640100
H     6.081400    7.085600    1.310300
C     4.542700    8.291000    0.763000
H     4.730200    8.275300   -0.168400
N     2.803400   10.056800    7.011200
C     2.872400   11.803000    8.793600
H     3.391100   11.259000    9.375600
C     2.579700   13.103900    9.148800
H     2.908900   13.455400    9.968500
C     1.077000   10.339300    2.736500
C     2.848900    8.921700    7.691700
C     1.638500   12.090400    6.735300
C     3.327300    7.735700    7.111200
H     3.375800    6.979400    7.684600
C     1.812300   13.896800    8.319800
H     1.607400   14.789600    8.574000
C     3.737500    7.537300    5.790900
C     2.411500   11.284100    7.587600
C     1.336300   13.393000    7.111800
H     0.803800   13.939600    6.546200
C     0.193700   11.155400    3.453300
H    -0.598800   11.405300    2.992500
C     0.318300   11.651200    4.750200
C     4.587100   16.057700    5.309600
C     5.599900   17.010400    4.950000
C     5.808400   17.325700    3.631000
C     3.834400   15.449800    4.346600
C     7.170800   17.473700    3.110000
C     8.247500   17.303000    3.951900
C     2.294600    8.797800    9.091100
H     3.019300    8.905800    9.740400
H     1.883200    7.914700    9.201900
H     1.619200    9.492800    9.237000
C    -0.928800   12.237900    5.385000
H    -0.965500   11.981800    6.330500
H    -1.722600   11.894800    4.923700
H    -0.904300   13.215000    5.311400
C     0.595900    9.924800    1.357300
H     0.972500   10.527400    0.684100
H    -0.383300    9.970100    1.326100
H     0.885500    9.006800    1.171700
C     4.161200    6.129400    5.452900
H     3.821600    5.890800    4.565900
H     3.796600    5.509300    6.120000
H     5.139400    6.073700    5.455200

QM/MM links (counting starts at zero)
 73  101
 74   93
 80  105
 86   97
