91
QM: 29 at, MM: 62 at, Links: 2
Fe    7.144900   -0.622300   10.328600
O     9.161500   -0.556000   10.262400
O     7.875100    0.851600    9.227700
O    10.094200    1.132700    9.072200
O     7.071800   -2.098300   11.630800
O     7.048300   -2.659300   13.795200
O     5.269200   -0.138100    9.820100
O     3.706900   -0.281300    8.217400
N     6.911100    0.470000   12.173000
N     6.720200   -2.057600    8.749800
C     9.119700    0.515900    9.496500
C     7.074500   -1.828700   12.900600
C     7.054300   -0.361700   13.230400
C     7.123600    0.092500   14.529500
H     7.238400   -0.514100   15.252000
C     7.018400    1.460300   14.759000
H     7.080100    1.807600   15.640600
C     6.825700    2.302400   13.684900
H     6.732200    3.235900   13.830100
C     6.767200    1.796300   12.388900
C     4.760100   -0.634700    8.745700
C     5.550700   -1.764800    8.133000
C     5.080200   -2.469600    7.044600
H     4.259500   -2.234500    6.627700
C     5.839400   -3.531800    6.578400
H     5.551000   -4.036700    5.827100
C     7.019600   -3.845100    7.219300
H     7.543300   -4.576100    6.912300
C     7.451200   -3.099700    8.311300
C     6.521600    2.692600   11.220500
H     7.342300    2.768900   10.689400
H     6.254400    3.579300   11.539200
H     5.807000    2.315900   10.664700
C     8.719800   -3.442600    9.041600
H     9.357300   -2.702900    8.954100
H     9.108800   -4.256100    8.657100
H     8.520600   -3.593200    9.990100
P     4.000500    1.877800    3.509300
C     2.570700    2.489000    4.430500
C     1.934600    1.630200    5.333900
H     2.201400    0.720700    5.396000
C     0.914800    2.110400    6.136100
H     0.497800    1.535900    6.768600
C     0.501300    3.423300    6.018000
H    -0.206600    3.745600    6.563300
C     1.112900    4.272500    5.111600
H     0.817200    5.171900    5.030600
C     2.157100    3.814100    4.319800
H     2.586400    4.399600    3.707300
C     4.305800    2.823300    2.020900
C     4.740800    4.152900    2.119400
H     4.833100    4.567400    2.969700
C     5.036500    4.854900    0.961900
H     5.340500    5.753400    1.018200
C     4.889400    4.248900   -0.286700
H     5.097300    4.734700   -1.077000
C     4.442600    2.949600   -0.376100
H     4.324700    2.549200   -1.228900
C     4.163200    2.223300    0.775000
H     3.876100    1.319600    0.710300
C     3.675600    0.156600    3.133600
C     2.468100   -0.188100    2.534500
H     1.844300    0.488800    2.296300
C     2.176000   -1.519900    2.285400
H     1.351800   -1.760000    1.880300
C     3.097800   -2.500600    2.630700
H     2.896700   -3.414400    2.470100
C     4.307200   -2.154600    3.205600
H     4.936900   -2.830700    3.428100
C     4.600700   -0.826000    3.457700
H     5.431800   -0.588200    3.851000
C     5.439600    1.988200    4.586900
C     6.674900    2.422000    4.111400
H     6.777100    2.656500    3.196800
C     7.755900    2.510600    4.977800
H     8.597000    2.813000    4.654300
C     7.615900    2.159800    6.314000
H     8.355100    2.229800    6.906800
C     6.392000    1.706800    6.776800
H     6.299500    1.452400    7.686900
C     5.303100    1.620300    5.930100
H     4.467400    1.312100    6.258200
N     7.104600    0.534300    1.322000
C     8.244500    0.584700    1.534100
C     9.651000    0.606300    1.883100
H     9.778300    1.139600    2.696000
H    10.163900    1.002800    1.148200
H     9.962500   -0.308500    2.041800
O     1.810400    0.666300   10.128200
H     2.304400    0.511300    9.511100
H     1.078900    0.675600    9.757400

QM/MM links (counting starts at zero)
 19   29
 28   33
