184
QM: 16 at, MM: 168 at, Links: 18
Fe    0.000000    0.000000    0.000000
Li   -2.994300    0.000000    0.000000
O    -1.535100   -0.803700   -1.010700
O    -4.517500   -0.189600   -1.224600
O    -1.535100    0.803700    1.010700
O     1.463600   -0.927600   -1.010700
Li    1.497200   -2.593200    0.000000
O     0.071500   -1.731400    1.010700
O     0.071500    1.731400   -1.010700
Li    1.497200    2.593200    0.000000
O     1.463600    0.927600    1.010700
O     2.094500    4.007100   -1.224600
O     2.423000    3.817500    1.224600
O     2.423000   -3.817500   -1.224600
O     2.094500   -4.007100    1.224600
O    -4.517500    0.189600    1.224600
C    -4.559300    0.274800   -2.564900
H    -3.665400    0.357400   -2.931300
H    -5.003200    1.136600   -2.618900
C    -5.364400   -0.807600   -3.305400
H    -6.008700   -0.398600   -3.903300
H    -4.771500   -1.367500   -3.830000
C    -6.086200   -1.650100   -2.239000
H    -5.817300   -2.580300   -2.287200
H    -7.050100   -1.593300   -2.343100
C    -5.634800   -1.010200   -0.912200
H    -6.349900   -0.478600   -0.532300
H    -5.383100   -1.696500   -0.273800
C    -1.506100   -2.017800   -1.523500
C    -1.673700   -3.154400   -0.734800
C    -1.562700   -4.435500   -1.361500
C    -1.563500   -5.631400   -0.642200
H    -1.615600   -5.613300    0.285400
C    -1.486000   -6.851900   -1.307500
H    -1.496400   -7.633700   -0.804200
C    -1.396600   -6.952500   -2.699900
H    -1.349700   -7.779500   -3.122200
C    -1.378700   -5.832700   -3.388400
H    -1.325800   -5.883000   -4.314000
C    -1.439100   -4.551600   -2.780900
C    -1.356400   -3.342700   -3.560000
H    -1.297500   -3.390500   -4.487600
C    -1.363800   -2.127400   -2.939000
H    -1.275200   -1.354600   -3.448100
C     2.500500    0.295400    1.523500
C     3.568600   -0.127700    0.734800
C     3.568600    0.127700   -0.734800
C     2.500500   -0.295400   -1.523500
C     2.524300   -0.117400   -2.939000
C     3.573100    0.496700   -3.560000
C     4.661300    1.029500   -2.780900
C     4.622600    0.864400   -1.361500
C     5.658700    1.461700   -0.642200
H     5.669100    1.407500    0.285400
C     6.676900    2.139000   -1.307500
H     7.359200    2.520900   -0.804200
C     6.719300    2.266800   -2.699900
H     7.412100    2.720900   -3.122200
C     5.740600    1.722300   -3.388400
H     5.757700    1.793300   -4.314000
H     3.585000    0.571500   -4.487600
H     1.810700   -0.427000   -3.448100
C     4.622600   -0.864400    1.361500
C     5.658700   -1.461700    0.642200
H     5.669100   -1.407500   -0.285400
C     6.676900   -2.139000    1.307500
H     7.359200   -2.520900    0.804200
C     6.719300   -2.266800    2.699900
H     7.412100   -2.720900    3.122200
C     5.740600   -1.722300    3.388400
H     5.757700   -1.793300    4.314000
C     4.661300   -1.029500    2.780900
C     3.573100   -0.496700    3.560000
H     3.585000   -0.571500    4.487600
C     2.524300    0.117400    2.939000
H     1.810700    0.427000    3.448100
C     2.517600    3.811000   -2.564900
H     2.142200    2.995700   -2.931300
H     3.485900    3.764600   -2.618900
C     1.982800    5.049600   -3.305400
H     2.659100    5.403100   -3.903300
H     1.201500    4.816000   -3.830000
C     1.614100    6.095800   -2.239000
H     0.674100    6.328100   -2.287200
H     2.145200    6.902200   -2.343100
C     1.942600    5.385000   -0.912200
H     2.760400    5.738500   -0.532300
H     1.222300    5.510100   -0.273800
C     2.041600    4.085800    2.564900
H     1.523200    3.353000    2.931300
H     1.517300    4.901200    2.618900
C     3.381600    4.241900    3.305400
H     3.349600    5.004400    3.903300
H     3.570100    3.448500    3.830000
C     4.472100    4.445800    2.239000
H     5.143200    3.747800    2.287200
H     4.904900    5.308900    2.343100
C     3.692200    4.374800    0.912200
H     3.589500    5.259800    0.532300
H     4.160800    3.813600    0.273800
C    -0.994400    2.313200   -1.523500
C    -1.894900    3.026600   -0.734800
C    -1.673700    3.154400    0.734800
C    -1.506100    2.017800    1.523500
C    -1.363800    2.127400    2.939000
C    -1.356400    3.342700    3.560000
C    -1.439100    4.551600    2.780900
C    -1.562700    4.435500    1.361500
C    -1.563500    5.631400    0.642200
H    -1.615600    5.613300   -0.285400
C    -1.486000    6.851900    1.307500
H    -1.496400    7.633700    0.804200
C    -1.396600    6.952500    2.699900
H    -1.349700    7.779500    3.122200
C    -1.378700    5.832700    3.388400
H    -1.325800    5.883000    4.314000
H    -1.297500    3.390500    4.487600
H    -1.275200    1.354600    3.448100
C    -3.059900    3.571100   -1.361500
C    -4.095200    4.169700   -0.642200
H    -4.053500    4.205800    0.285400
C    -5.190900    4.712800   -1.307500
H    -5.862800    5.112800   -0.804200
C    -5.322700    4.685700   -2.699900
H    -6.062400    5.058600   -3.122200
C    -4.361900    4.110300   -3.388400
H    -4.431900    4.089700   -4.314000
C    -3.222200    3.522000   -2.780900
C    -2.216700    2.846000   -3.560000
H    -2.287400    2.818900   -4.487600
C    -1.160500    2.244800   -2.939000
H    -0.535600    1.781700   -3.448100
C    -0.994400   -2.313200    1.523500
C    -1.894900   -3.026600    0.734800
C    -3.059900   -3.571100    1.361500
C    -4.095200   -4.169700    0.642200
H    -4.053500   -4.205800   -0.285400
C    -5.190900   -4.712800    1.307500
H    -5.862800   -5.112800    0.804200
C    -5.322700   -4.685700    2.699900
H    -6.062400   -5.058600    3.122200
C    -4.361900   -4.110300    3.388400
H    -4.431900   -4.089700    4.314000
C    -3.222200   -3.522000    2.780900
C    -2.216700   -2.846000    3.560000
H    -2.287400   -2.818900    4.487600
C    -1.160500   -2.244800    2.939000
H    -0.535600   -1.781700    3.448100
C     2.041600   -4.085800   -2.564900
H     1.523200   -3.353000   -2.931300
H     1.517300   -4.901200   -2.618900
C     3.381600   -4.241900   -3.305400
H     3.349600   -5.004400   -3.903300
H     3.570100   -3.448500   -3.830000
C     4.472100   -4.445800   -2.239000
H     5.143200   -3.747800   -2.287200
H     4.904900   -5.308900   -2.343100
C     3.692200   -4.374800   -0.912200
H     3.589500   -5.259800   -0.532300
H     4.160800   -3.813600   -0.273800
C     2.517600   -3.811000    2.564900
H     2.142200   -2.995700    2.931300
H     3.485900   -3.764600    2.618900
C     1.982800   -5.049600    3.305400
H     2.659100   -5.403100    3.903300
H     1.201500   -4.816000    3.830000
C     1.614100   -6.095800    2.239000
H     0.674100   -6.328100    2.287200
H     2.145200   -6.902200    2.343100
C     1.942600   -5.385000    0.912200
H     2.760400   -5.738500    0.532300
H     1.222300   -5.510100    0.273800
C    -4.559300   -0.274800    2.564900
H    -3.665400   -0.357400    2.931300
H    -5.003200   -1.136600    2.618900
C    -5.364400    0.807600    3.305400
H    -6.008700    0.398600    3.903300
H    -4.771500    1.367500    3.830000
C    -6.086200    1.650100    2.239000
H    -5.817300    2.580300    2.287200
H    -7.050100    1.593300    2.343100
C    -5.634800    1.010200    0.912200
H    -6.349900    0.478600    0.532300
H    -5.383100    1.696500    0.273800

QM/MM links (counting starts at zero)
  2   28
  3   16
  3   25
  4  103
  5   47
  7  132
  8  100
 10   44
 11   76
 11   85
 12   88
 12   97
 13  148
 13  157
 14  160
 14  169
 15  172
 15  181
