79
QM: 33 at, MM: 46 at, Links: 2
Fe    4.611100    7.800200    6.278500
Cl    6.394300    6.468800    6.939400
Cl    5.518900    9.945200    7.129000
N     2.718700    8.775200    5.557500
N     3.676700    6.204400    5.153000
N     3.376200    7.952200    8.235200
H     3.680200    9.065300    8.398600
N     5.260600    9.051400    4.098800
H     5.554500    9.994800    5.076700
C     4.247700    5.003400    4.911900
H     5.022600    4.778900    5.374000
C     3.736100    4.103800    4.015800
H     4.153500    3.282900    3.884500
C     2.579300    4.430300    3.299200
H     2.222300    3.841300    2.675000
C     1.982000    5.648700    3.544300
H     1.209000    5.892800    3.087500
C     2.547300    6.510500    4.483300
C     1.829200    7.788400    4.862300
H     1.468200    8.197400    4.061300
H     1.084900    7.570500    5.445000
C     1.985000    9.308700    6.744300
H     1.072300    9.517500    6.489800
H     2.408000   10.129900    7.041700
C     1.973500    8.318300    7.868200
H     1.524600    8.702900    8.637000
H     1.487500    7.524200    7.598900
C     3.024700    9.900400    4.623900
H     3.434000   10.626100    5.120900
H     2.198000   10.230700    4.239500
C     3.951600    9.474300    3.514800
H     3.558600    8.736700    3.023200
H     4.088900   10.210800    2.900000
C     3.433700    7.212300    9.478200
C     3.780800    7.870400   10.662300
C     3.807300    7.152100   11.847800
H     4.040300    7.592000   12.634100
C     3.497800    5.803700   11.901400
C     3.177300    5.171100   10.717300
H     2.987800    4.260800   10.734700
C     3.125200    5.838700    9.494300
C     4.129700    9.342700   10.655600
H     3.366800    9.852400   10.371700
H     4.859200    9.493800   10.051500
H     4.385200    9.614200   11.541000
C     3.547500    5.035300   13.195300
H     3.633600    5.648600   13.929300
H     4.301100    4.441100   13.185900
H     2.739400    4.526200   13.297100
C     2.771400    5.080700    8.255300
H     2.827900    4.138200    8.429400
H     3.382400    5.313100    7.552000
H     1.876800    5.304900    7.988700
C     6.303200    9.095300    3.088900
C     7.071300   10.258900    2.950900
C     8.051200   10.319500    1.949000
H     8.556900   11.093000    1.849800
C     8.275800    9.246500    1.107800
C     7.498100    8.110500    1.261800
H     7.633800    7.391500    0.687200
C     6.519900    8.007300    2.247700
C     6.854500   11.451300    3.844300
H     5.925400   11.693600    3.837600
H     7.378700   12.189800    3.525500
H     7.122600   11.232800    4.739100
C     9.345900    9.348800    0.041500
H     9.309800   10.218400   -0.365700
H     9.200600    8.677400   -0.628200
H    10.208100    9.219500    0.443400
C     5.746400    6.723700    2.413800
H     5.934400    6.341300    3.275100
H     6.010300    6.106600    1.726600
H     4.805800    6.900300    2.341400
N    -0.399700    5.888200   13.039900
C    -0.245600    6.563400   12.153200
C    -0.033200    7.448100   11.007900
H     0.900100    7.460900   10.780200
H    -0.319700    8.336200   11.233000
H    -0.540800    7.128700   10.257800

QM/MM links (counting starts at zero)
  5   33
  7   53
