86
QM: 57 at, MM: 29 at, Links: 2
Fe    0.655000    7.501100    8.163600
O     0.355100    5.846000    8.976700
O    -0.935800    7.342100    7.183000
N    -0.365300    8.426300    9.501700
N     0.916800    9.363500    7.349900
H     1.783600    9.701400    7.658800
N     1.640100    6.540200    6.823300
N     2.481300    7.621500    9.120900
H     2.876800    8.495400    8.919100
C    -0.756800    5.550600    9.626400
C    -1.081300    4.152000    9.671800
H    -0.541500    3.533100    9.235500
C    -2.188800    3.735800   10.358800
H    -2.390400    2.828600   10.374400
C    -3.041600    4.636600   11.047500
C    -4.146200    4.176800   11.796100
H    -4.310000    3.263600   11.850100
C    -4.972800    5.038300   12.439400
H    -5.684600    4.718500   12.946500
C    -4.742900    6.415000   12.330800
H    -5.326300    7.010600   12.741900
C    -3.665900    6.904000   11.624300
H    -3.527800    7.822200   11.575700
C    -2.768000    6.026500   10.971300
C    -1.583400    6.493600   10.256800
C    -1.290900    7.895100   10.224300
H    -1.803500    8.459400   10.757300
C    -0.205200    9.874300    9.432000
H     0.611500   10.147600    9.879100
H    -0.955100   10.320000    9.854900
C    -0.144100   10.220700    7.960700
H    -0.999900   10.047300    7.538000
H     0.073300   11.158600    7.843800
C    -1.229700    6.279700    6.461900
C    -2.618100    6.049800    6.228600
H    -3.247600    6.639500    6.575600
C    -3.031400    4.975700    5.502700
H    -3.944000    4.841800    5.380300
C    -2.121900    4.054500    4.927500
C    -2.565700    2.954300    4.152900
H    -3.474300    2.851300    3.986300
C    -1.686700    2.044700    3.645800
H    -1.995000    1.325500    3.142400
C    -0.320200    2.200400    3.887200
H     0.276200    1.565000    3.563400
C     0.163000    3.290500    4.601800
H     1.078900    3.386500    4.731800
C    -0.727700    4.258300    5.136500
C    -0.270700    5.413800    5.886700
C     1.129300    5.653900    6.032500
H     1.713000    5.137200    5.525900
C     3.079500    6.647900    6.982000
H     3.400900    7.490400    6.623000
H     3.530200    5.921300    6.525000
C     3.322500    6.575100    8.485700
H     3.078300    5.698200    8.822600
H     4.259000    6.730700    8.682500
Br    3.909600   10.588300    8.191300
C     0.931400    9.391200    5.859100
H     0.352000    8.685300    5.533000
H     1.831300    9.193400    5.556500
C     0.496300   10.687800    5.236900
C    -0.646200   10.703900    4.449500
H    -1.135900    9.921700    4.335900
C    -1.069700   11.872500    3.830500
H    -1.824900   11.864900    3.288300
C    -0.366700   13.048400    4.020100
H    -0.657400   13.835100    3.620100
C     0.769900   13.048400    4.809200
H     1.243700   13.839000    4.935300
C     1.207900   11.876800    5.411900
H     1.978300   11.883700    5.933800
C     2.427500    7.465800   10.608400
H     1.808700    6.751900   10.825700
H     2.082200    8.285000   10.996000
C     3.770700    7.157200   11.233800
C     3.932300    6.029400   11.980800
H     3.224400    5.432900   12.070400
C     5.135800    5.757200   12.611100
H     5.214700    5.006600   13.154000
C     6.212700    6.589700   12.436100
H     7.020800    6.410300   12.858500
C     6.077400    7.707400   11.617800
H     6.809300    8.261800   11.469700
C     4.865100    7.997000   11.026400
H     4.776600    8.752700   10.490500

QM/MM links (counting starts at zero)
  4   58
  7   72
