140
QM: 38 at, MM: 102 at, Links: 12
Sn   10.627500    4.375000    3.742700
O    11.764600    4.124700    2.094900
O    10.756500    2.353200    4.026600
O    12.352100    4.708100    4.774400
O    10.439800    6.351000    3.349600
O     8.829600    4.081300    2.847600
O     9.641000    4.538900    5.515000
C    11.512100    4.465500    6.988400
H    11.768800    4.351000    7.896100
C    10.139200    4.510900    6.711000
C    12.716200    2.036900    2.724500
H    13.453700    1.455500    2.581000
C    11.733300    1.602900    3.633000
C    12.534900    4.573200    6.045700
C     8.103100    6.349000    2.894400
H     7.336700    6.904800    2.823200
C     9.319200    6.981800    3.144800
C    12.717200    3.222100    2.022800
C     7.903300    4.983800    2.739100
Fe    5.143200   12.026200    4.010700
O     4.541300   13.161400    2.373500
O     4.821200   10.359600    2.788900
O     5.691000   10.623000    5.460000
O     3.184000   11.699000    4.684300
O     5.487500   13.663000    5.238900
O     7.069200   12.383700    3.290500
C     4.394200   12.752200    1.196500
C     4.325700   11.437800    0.728500
H     4.151300   11.279400   -0.191800
C     4.508000   10.351200    1.587800
C     2.787700   10.637800    5.225400
C     3.549900    9.620300    5.798600
H     3.110400    8.855500    6.150600
C     4.929700    9.696600    5.867200
C     6.373100   14.548900    5.085100
C     7.427100   14.562400    4.179600
H     7.973600   15.336300    4.112600
C     7.697600   13.468500    3.372600
C    13.816000    3.610400    1.034200
C     6.525900    4.424900    2.376500
C    11.778700    0.200600    4.217700
C    14.013200    4.616000    6.434200
C     9.458300    8.491200    3.226500
C    13.095500    0.032700    4.997700
H    13.854000    0.145700    4.386700
H    13.127900   -0.861100    5.396800
H    13.144400    0.709000    5.705900
C    15.082500    2.751700    1.231200
H    15.386800    2.826700    2.159900
H    15.788500    3.067600    0.629600
H    14.877000    1.814600    1.029900
C    14.288100    4.039600    7.823900
H    13.817200    4.573000    8.497700
H    15.251000    4.062600    8.002900
H    13.970900    3.112600    7.861700
C     6.519700    2.907700    2.448000
H     7.186300    2.548200    1.826400
H     5.631600    2.572200    2.205000
H     6.737400    2.622300    3.360700
C     9.806500    8.843900    4.676800
H     9.082600    8.548100    5.267600
H     9.917800    9.814800    4.758600
H    10.640000    8.397300    4.931500
C    10.597200   -0.036800    5.155000
H    10.624200    0.614800    5.886500
H    10.650900   -0.943800    5.524300
H     9.760000    0.064000    4.657300
C     5.471900    5.024500    3.313800
H     5.701400    4.810800    4.242900
H     4.592700    4.648200    3.100500
H     5.447700    5.997300    3.199400
C     6.204100    4.844600    0.930900
H     6.272400    5.818400    0.850400
H     5.294300    4.560300    0.703500
H     6.841400    4.420200    0.319000
C    13.265200    3.423100   -0.381300
H    12.954700    2.499900   -0.492400
H    13.972100    3.609900   -1.034500
H    12.516800    4.038800   -0.525400
C    14.836200    3.829500    5.394900
H    14.551400    2.891300    5.394900
H    15.787300    3.882000    5.623300
H    14.691600    4.214000    4.505100
C    14.194900    5.077200    1.269300
H    13.424600    5.649200    1.071300
H    14.941200    5.319300    0.681000
H    14.462500    5.199700    2.203400
C    11.723000   -0.823900    3.066000
H    10.889800   -0.705600    2.564300
H    11.755500   -1.731700    3.435300
H    12.487200   -0.686700    2.469000
C    10.611600    8.923900    2.305100
H    11.434800    8.465000    2.574100
H    10.740300    9.893200    2.376900
H    10.395000    8.691000    1.378700
C     8.178500    9.235000    2.811800
H     7.930300    8.973600    1.899900
H     8.338100   10.201200    2.842100
H     7.452300    9.003500    3.426900
C    14.419200    6.099700    6.375100
H    14.258800    6.446600    5.473400
H    15.370400    6.186800    6.595000
H    13.886900    6.609400    7.021400
C     9.073300    4.555800    7.793500
C     8.156400    3.356200    7.582400
H     7.783400    3.386500    6.676200
H     7.426600    3.384800    8.236300
H     8.667300    2.529100    7.698300
C     9.641900    4.523400    9.205900
H    10.154500    3.698300    9.333300
H     8.906800    4.554500    9.853800
H    10.228000    5.296900    9.339600
C     8.299600    5.875100    7.601500
H     8.905800    6.632700    7.741600
H     7.565000    5.920600    8.247700
H     7.937300    5.911800    6.691300
C     4.246100   13.874000    0.176000
C     1.260200   10.507900    5.244000
C     5.690400    8.524900    6.489400
F     6.956800   15.356400    7.228600
F     3.119300   14.589400    0.392700
F     4.208500   13.466600   -1.093800
F     5.264700   14.743000    0.277800
F     0.823600    9.321500    5.658300
F     0.721700   11.420700    6.051000
F     0.747100   10.707500    4.033500
F     4.928800    7.734500    7.243500
F     6.230100    7.751500    5.538700
F     6.693300    8.925800    7.262800
C     6.294400   15.693700    6.119300
F     6.820400   16.812400    5.690700
F     5.065000   15.932300    6.528000
C     4.267500    8.945200    1.011900
F     3.731500    8.929800   -0.188400
F     5.415300    8.289400    0.892800
F     3.505700    8.234900    1.782300
C     8.924100   13.520700    2.460700
F     9.546800   14.694100    2.457100
F     9.843500   12.621100    2.864200
F     8.621200   13.217000    1.219400

QM/MM links (counting starts at zero)
  9  103
 12   40
 13   41
 16   42
 17   38
 18   39
 26  116
 29  132
 30  117
 33  118
 34  129
 37  136
