108
QM: 63 at, MM: 45 at, Links: 0
Fe   10.829000   10.829000    0.000000
Br   12.941300   12.091200    0.799000
N    11.081700    9.266800    1.327600
N     9.618500   11.800400    1.374300
C    12.483200    7.837800   -0.081800
H    12.919000    7.016800   -0.108900
C    11.764400    8.099400    1.060700
C    11.564500    7.178300    2.168100
C    11.987300    5.865400    2.370800
H    12.537100    5.435400    1.756400
C    11.561000    5.228500    3.514800
H    11.810800    4.345800    3.666700
C    10.764000    5.880800    4.447100
H    10.506800    5.431700    5.219900
C    10.344700    7.173100    4.252100
H     9.810400    7.604300    4.879200
C    10.745400    7.816600    3.087300
C    10.444100    9.128200    2.528300
C     9.598000   10.064900    3.098800
H     9.248800    9.849600    3.933700
C     9.212900   11.282100    2.571100
C     8.292200   12.224600    3.208200
C     7.609300   12.182600    4.417300
H     7.670500   11.449500    4.985900
C     6.826800   13.293700    4.737700
H     6.369900   13.307500    5.547300
C     6.711800   14.380900    3.876600
H     6.181200   15.103700    4.118900
C     7.375000   14.397600    2.673600
H     7.285100   15.116400    2.090500
C     8.187200   13.308000    2.347800
C     9.018600   13.016500    1.194600
N    10.576300   12.391200   -1.327600
N    12.039500    9.857600   -1.374300
C     9.174800   13.820200    0.081800
H     8.739000   14.641200    0.108900
C     9.893600   13.558600   -1.060700
C    10.093500   14.479700   -2.168100
C     9.670700   15.792600   -2.370800
H     9.120900   16.222600   -1.756400
C    10.097000   16.429500   -3.514800
H     9.847200   17.312200   -3.666700
C    10.894000   15.777200   -4.447100
H    11.151200   16.226300   -5.219900
C    11.313300   14.484900   -4.252100
H    11.847600   14.053700   -4.879200
C    10.912600   13.841400   -3.087300
C    11.213900   12.529800   -2.528300
C    12.060000   11.593100   -3.098800
H    12.409200   11.808400   -3.933700
C    12.445100   10.375900   -2.571100
C    13.365800    9.433400   -3.208200
C    14.048700    9.475400   -4.417300
H    13.987500   10.208500   -4.985900
C    14.831200    8.364300   -4.737700
H    15.288100    8.350500   -5.547300
C    14.946200    7.277100   -3.876600
H    15.476800    6.554300   -4.118900
C    14.283000    7.260400   -2.673600
H    14.372900    6.541600   -2.090500
C    13.470800    8.350000   -2.347800
C    12.639400    8.641500   -1.194600
Br    8.716700    9.566800   -0.799000
P    16.243500   16.243500    1.911900
C    14.865600   16.598700    0.824400
C    15.002500   17.590600   -0.126200
H    15.778200   18.104100   -0.151800
C    13.997600   17.820200   -1.035500
H    14.088900   18.499200   -1.664700
C    12.864900   17.057800   -1.018700
H    12.183600   17.226000   -1.627900
C    12.734900   16.061600   -0.123100
H    11.966700   15.536700   -0.128500
C    13.731000   15.808200    0.808400
H    13.636900   15.110700    1.417100
C    17.621400   15.888300    0.824400
C    17.484500   14.896400   -0.126200
H    16.708800   14.382900   -0.151800
C    18.489400   14.666800   -1.035500
H    18.398100   13.987800   -1.664700
C    19.622100   15.429200   -1.018700
H    20.303400   15.261000   -1.627900
C    19.752100   16.425400   -0.123100
H    20.520300   16.950300   -0.128500
C    18.756000   16.678800    0.808400
H    18.850100   17.376300    1.417100
C    16.598700   17.621400    2.999400
C    17.590600   17.484500    3.950000
H    18.104100   16.708800    3.975600
C    17.820200   18.489400    4.859300
H    18.499200   18.398100    5.488500
C    17.057800   19.622100    4.842500
H    17.226000   20.303400    5.451700
C    16.061600   19.752100    3.946900
H    15.536700   20.520300    3.952300
C    15.808200   18.756000    3.015400
H    15.110700   18.850100    2.406700
C    15.888300   14.865600    2.999400
C    14.896400   15.002500    3.950000
H    14.382900   15.778200    3.975600
C    14.666800   13.997600    4.859300
H    13.987800   14.088900    5.488500
C    15.429200   12.864900    4.842500
H    15.261000   12.183600    5.451700
C    16.425400   12.734900    3.946900
H    16.950300   11.966700    3.952300
C    16.678800   13.731000    3.015400
H    17.376300   13.636900    2.406700

QM/MM links (counting starts at zero)
