92
QM: 31 at, MM: 61 at, Links: 6
Fe    0.955000    6.915500    0.000000
P     0.860100    6.487600    2.184400
P     2.643500    8.290600    0.276800
N     3.655900    6.506400    2.210500
N    -0.573500    5.617500   -0.309800
N    -0.851100    4.466900   -0.431400
N    -1.243000    3.378500   -0.547600
C     2.491400    6.188700    3.015100
H     2.525000    6.728800    3.844000
H     2.541000    5.235000    3.276700
C     3.705500    7.896700    1.766900
H     4.645000    8.124300    1.553000
H     3.421800    8.477000    2.516900
C     3.897600    8.279100   -1.135100
H     3.927400    9.186600   -1.529600
H     4.791400    8.093900   -0.753100
P     0.860100    7.343400   -2.184400
P     2.643500    5.540400   -0.276800
N     3.655900    7.324600   -2.210500
N    -0.573500    8.213500    0.309800
N    -0.851100    9.364100    0.431400
N    -1.243000   10.452500    0.547600
C     2.491400    7.642300   -3.015100
H     2.525000    7.102200   -3.844000
H     2.541000    8.596000   -3.276700
C     3.705500    5.934300   -1.766900
H     4.645000    5.706700   -1.553000
H     3.421800    5.354000   -2.516900
C     3.897600    5.551900    1.135100
H     3.927400    4.644400    1.529600
H     4.791400    5.737100    0.753100
O     0.351600    3.869900    2.197300
O    -1.095900    2.721400    3.463500
O     0.338600    7.452000    4.607000
O    -0.481200    9.435100    5.260000
O     1.762400   10.372400    1.657600
O     2.109400   12.543700    1.315500
C    -0.157100    5.080500    2.790400
H    -0.104500    5.023400    3.777100
H    -1.105000    5.211500    2.535400
C    -0.245600    2.732900    2.624200
C     0.280600    1.534400    1.897100
H    -0.253900    0.748300    2.133700
H     1.214800    1.383100    2.150400
H     0.225000    1.688800    0.930500
C     0.106800    7.809500    3.224300
H     0.523100    8.684500    3.022300
H    -0.864800    7.874000    3.045800
C     0.058000    8.400800    5.531300
C     0.467500    7.968200    6.900700
H     1.032600    8.658200    7.306500
H     0.970000    7.128500    6.841300
H    -0.330200    7.832500    7.453800
C     2.508200   10.109900    0.460500
H     3.409600   10.514300    0.523800
H     2.044500   10.499100   -0.323000
C     1.623600   11.683900    1.972100
C     0.774000   11.859800    3.177300
H     0.952500   12.737000    3.577900
H     0.980700   11.156100    3.827300
H    -0.170100   11.802000    2.921900
O     0.351600    9.961100   -2.197300
O    -1.095900   11.109600   -3.463500
O     0.338600    6.379000   -4.607000
O    -0.481200    4.395900   -5.260000
O     1.762400    3.458600   -1.657600
O     2.109400    1.287300   -1.315500
C    -0.157100    8.750500   -2.790400
H    -0.104500    8.807600   -3.777100
H    -1.105000    8.619500   -2.535400
C    -0.245600   11.098100   -2.624200
C     0.280600   12.296600   -1.897100
H    -0.253900   13.082700   -2.133700
H     1.214800   12.447900   -2.150400
H     0.225000   12.142200   -0.930500
C     0.106800    6.021500   -3.224300
H     0.523100    5.146500   -3.022300
H    -0.864800    5.957000   -3.045800
C     0.058000    5.430200   -5.531300
C     0.467500    5.862800   -6.900700
H     1.032600    5.172800   -7.306500
H     0.970000    6.702500   -6.841300
H    -0.330200    5.998500   -7.453800
C     2.508200    3.721100   -0.460500
H     3.409600    3.316700   -0.523800
H     2.044500    3.331900    0.323000
C     1.623600    2.147100   -1.972100
C     0.774000    1.971200   -3.177300
H     0.952500    1.094000   -3.577900
H     0.980700    2.674900   -3.827300
H    -0.170100    2.029000   -2.921900
O     5.236800   10.526800    3.239900

QM/MM links (counting starts at zero)
  1   37
  1   45
  2   53
 16   67
 16   75
 17   83
