75
QM: 59 at, MM: 16 at, Links: 4
Fe    3.201000    7.869600    9.701200
O     4.911900    8.833900    8.848200
O     2.519100    7.033200    7.911500
O     4.143100   12.655900    7.473400
O     2.359300    2.907200    7.781200
O     1.583800    1.007200    4.375400
O     1.256600    0.896200    6.512300
O     7.091700   15.077100    6.279200
O     9.546700    9.541100    7.312700
O    10.097900   11.343500    6.244000
N     2.895100    5.021800    8.943000
O     1.124800    7.034900    3.266900
N     2.592600    9.848200    9.320400
O     5.001400   14.632100    5.967200
N     3.481700   10.581400    8.598300
N     3.249300    5.784700   10.021100
O     0.149400    5.284200    2.452000
N     1.158800    8.145700   10.525300
N     3.987500    7.533100   11.686200
N    -1.343100    8.724400   11.565200
N     1.451800    1.525900    5.479800
N     4.726100    6.977300   14.301400
N     6.138500   14.305800    6.296800
N     0.818000    5.846200    3.313500
N     9.277100   10.648100    6.837400
C     0.545600    9.324200   10.242000
C     2.505600    5.773000    7.904900
C    -0.716900    9.617300   10.782800
C     5.680800   10.845100    7.757600
C     6.960500   10.354400    7.573500
H     7.169900    9.487000    7.834800
C     4.059200    6.249600   12.127800
C     4.683600   10.005500    8.438900
C     3.772600    5.243200   11.070000
C     1.529300    2.982400    5.554800
C     1.227000    5.070200    4.473000
C     1.361800   10.228500    9.395900
C     7.928700   11.158800    6.997900
C     5.316000   12.181000    7.321500
C     4.309300    8.505100   12.532300
H     4.266500    9.390800   12.251900
C     2.037300    5.026700    6.732200
C     1.153600    3.688500    4.435900
H     0.857200    3.248100    3.672300
C     6.379500   12.930900    6.725100
C     1.981900    3.598000    6.752600
C     7.653800   12.450700    6.573100
H     8.319300   12.978500    6.194600
C     1.670600    5.736700    5.605000
H     1.721400    6.665200    5.606200
C     4.706700    8.217700   13.824700
H     4.969900    8.916100   14.379000
C    -0.725800    7.569200   11.813100
H    -1.151900    6.936700   12.346100
C     4.373000    5.974500   13.470500
C     0.525000    7.281300   11.305800
H     0.928500    6.469900   11.514200
H     3.454900   11.479300    8.268700
H     2.697600    3.779500    8.639700
C     4.122200    3.801500   11.168100
H     3.370900    3.312400   11.511300
H     4.871500    3.693000   11.758100
H     4.350000    3.467900   10.296900
C    -1.459400   10.910700   10.611700
H    -1.940500   10.896400    9.781800
H    -0.834300   11.639700   10.607300
H    -2.076500   11.023400   11.338400
C     4.322100    4.624600   14.125000
H     5.143400    4.156900   13.958300
H     3.588200    4.121600   13.763900
H     4.201100    4.732300   15.071200
C     0.843400   11.427600    8.669600
H     0.960700   12.208200    9.216000
H    -0.089700   11.307800    8.478900
H     1.326600   11.537300    7.847200

QM/MM links (counting starts at zero)
 27   63
 33   59
 36   71
 54   67
