86
QM: 41 at, MM: 45 at, Links: 8
Fe    8.607600    1.320900   24.475700
N     7.192000   -0.071300   23.655700
O    10.049600    1.148600   22.937600
C     5.985900   -0.125600   22.956000
N     6.795700   -2.195800   23.053700
C     5.080300    0.895400   22.648100
H     5.251900    1.798300   22.888200
N     9.242500   -0.650700   25.350900
C     3.926200    0.535400   21.978900
H     3.278200    1.200100   21.774500
N     7.713800    1.511400   26.517100
C     3.689600   -0.813800   21.589600
H     2.896600   -1.024800   21.112600
O     7.497800    2.963700   23.599500
N    10.043100    2.494900   25.561500
C     4.573100   -1.813300   21.885400
H     4.406300   -2.715300   21.637900
N    10.416600    3.863800   27.275700
C     5.741800   -1.437300   22.570900
C     7.613100   -1.318300   23.695100
C     8.912800   -1.698000   24.353800
H     8.824100   -2.577400   24.800400
H     9.631700   -1.761700   23.676200
C     8.482500   -0.877600   26.610100
H     7.594700   -1.290100   26.402600
C     8.282700    0.422900   27.383400
H     9.156400    0.722900   27.768400
C     8.122500    2.830600   27.078700
H     8.065700    2.814700   28.067800
H     7.528700    3.546000   26.738800
C     9.533200    3.078100   26.644800
C    11.375300    2.893400   25.518500
C    12.416300    2.536200   24.661700
H    12.270600    1.953900   23.923100
C    13.676400    3.063100   24.927000
H    14.405600    2.820300   24.369600
C    13.895100    3.937000   25.985000
H    14.766100    4.294200   26.118900
C    12.874200    4.298900   26.851200
H    13.024200    4.883000   27.584600
C    11.623200    3.763500   26.589100
S    10.174700    0.724900   21.547600
F     9.703700    3.215900   20.893600
S     7.450500    4.390200   23.833800
O     8.938300    0.337500   20.935600
F    10.771200    2.087100   19.418500
O    11.296800   -0.136000   21.318000
F    11.784500    2.758400   21.203000
F     7.130300    4.779900   21.290200
F     6.313400    6.324100   22.506300
O     8.722300    5.033900   23.686700
F     5.326600    4.451700   22.362900
O     6.717800    4.794900   24.948000
C     6.880700   -3.648200   23.062100
H     7.806400   -3.920100   23.234900
H     6.593800   -3.997000   22.194800
H     6.298800   -4.005400   23.765500
C    10.673200   -0.758500   25.752200
H    10.984500    0.084400   26.166200
H    11.242100   -0.956300   24.968500
C    10.723000   -1.919300   26.769800
H    10.863200   -2.786500   26.313300
H    11.448400   -1.782400   27.427000
C     9.342600   -1.868600   27.448000
H     9.427100   -1.549800   28.383000
H     8.928000   -2.766800   27.453200
C     7.250400    0.223100   28.529100
H     7.612000    0.566300   29.386400
H     7.037700   -0.737900   28.640400
C     5.968600    1.025700   28.113600
H     5.150700    0.477200   28.220200
H     5.873900    1.855500   28.645700
C     6.243600    1.340800   26.633200
H     5.933900    0.598200   26.055900
H     5.775300    2.170500   26.360600
C    10.204400    4.668300   28.475500
H     9.243600    4.783600   28.624700
H    10.626100    5.544900   28.356800
H    10.603400    4.213500   29.244600
C    10.630400    2.289600   20.725400
C     6.506700    5.016100   22.423300
Cl   -0.287400    6.937300   25.900900
Cl   -2.217800    9.120000   25.932900
C    -1.897900    7.468900   25.325700
H    -1.919000    7.464200   24.332800
H    -2.594500    6.847200   25.656600

QM/MM links (counting starts at zero)
  2   41
  4   53
  7   57
 10   72
 13   43
 17   75
 23   63
 25   66
