104
QM: 100 at, MM: 4 at, Links: 1
C     5.435000    5.275500   14.298400
C     7.482100    3.845900   13.229900
C     7.091400    5.091500   10.854300
C     5.052200    6.358400   11.862100
C     7.504900    6.575000   13.092500
Fe    6.319800    5.305300   12.606100
H     5.414300    4.103500   12.223700
N     4.888200    5.264200   15.339000
N     8.158200    3.000800   13.552300
N     7.564000    5.037700    9.787500
O     4.223800    6.968500   11.394200
O     8.305400    7.343600   13.398500
C     1.706200    1.988800   18.128600
H     1.217600    1.271100   17.654100
H     1.312900    2.097800   19.030100
C     3.127500    1.668900   18.223500
H     3.232400    0.761500   18.608000
H     3.521100    1.661800   17.315400
C     5.213300    2.301600   19.237900
H     5.657300    2.178400   18.360900
H     5.292700    1.455100   19.743500
C     5.875800    3.363200   19.967600
H     5.406400    3.523200   20.825000
H     6.808000    3.099900   20.170500
C     6.614900    5.599700   19.815500
H     7.574100    5.360500   19.866200
H     6.282300    5.761000   20.733400
C     6.429600    6.835400   18.967900
H     7.019400    7.558700   19.296800
H     6.675400    6.637200   18.028800
C     4.881600    8.505700   18.365800
H     5.194100    8.440600   17.428300
H     5.405400    9.212000   18.820700
C     3.458600    8.848200   18.392000
H     3.130500    8.859600   19.326300
H     3.319700    9.747100   18.001000
C     1.360700    8.163100   17.472500
H     1.250400    9.077500   17.109300
H     0.901000    8.119300   18.347800
C     0.780300    7.186400   16.551300
H    -0.135500    7.459600   16.294500
H     1.329700    7.121300   15.730000
C     0.255700    4.897600   16.413900
H     0.813600    4.833900   15.599100
H    -0.668900    5.118400   16.137400
C     0.263600    3.551500   17.148500
H    -0.228600    3.619400   18.004200
H    -0.161800    2.850800   16.592200
K     3.565700    5.208000   17.713800
O     1.634900    3.240100   17.380900
O     3.832200    2.603100   19.030100
O     5.869500    4.539500   19.195400
O     5.075100    7.253000   19.030100
O     2.741300    7.868700   17.632800
O     0.746600    5.899800   17.235300
C    11.416900    4.427700    4.694100
H    12.381800    4.601800    4.555100
H    10.998200    4.288900    3.807300
C    11.240300    3.194800    5.535100
H    11.741200    2.438900    5.137500
H    11.587700    3.354700    6.448100
C     9.674800    1.684400    6.363000
H    10.012200    1.818900    7.284200
H    10.171100    0.934200    5.950700
C     8.217800    1.392800    6.384300
H     7.894000    1.292300    5.453300
H     8.064600    0.535100    6.853900
C     6.125200    2.106200    7.151600
H     6.009700    1.266900    7.662100
H     5.719100    1.978900    6.256700
C     5.424500    3.225900    7.861700
H     4.468300    2.999400    7.984400
H     5.828100    3.361800    8.755100
C     4.933100    5.510500    7.707900
H     5.342900    5.652100    8.598000
H     3.972000    5.315200    7.840500
C     5.082900    6.768900    6.878400
H     4.762300    6.613200    5.955600
H     4.557500    7.507800    7.276000
C     6.680300    8.308900    6.083200
H     6.375800    8.168800    5.150600
H     6.170200    9.063400    6.469400
C     8.115000    8.599100    6.109400
H     8.283600    9.437100    5.610400
H     8.397300    8.742100    7.046900
C    10.312300    7.837600    5.335500
H    10.778200    7.909800    6.205900
H    10.419900    8.691100    4.846300
C    10.865300    6.729200    4.551800
H    10.339700    6.603300    3.722300
H    11.802700    6.924600    4.301500
K     8.450800    5.043200    7.087800
O    10.810100    5.555800    5.345300
O     9.845100    2.886200    5.587500
O     7.498200    2.382300    7.007700
O     5.547700    4.426200    7.079600
O     6.468100    7.093000    6.875100
O     8.909500    7.547400    5.538400
C    10.634700    4.856500   10.190000
N    10.653300    4.780100    9.054500
C    10.671600    4.876400   11.718100
H     9.853900    5.293900   12.060100
H    11.451300    5.387400   12.019200
H    10.733900    3.957700   12.055200

QM/MM links (counting starts at zero)
 98  100
