115
QM: 25 at, MM: 90 at, Links: 8
Fe   -7.731400   -3.684500   -3.832400
S    -9.538700   -3.924200    0.202800
S    -5.976000   -3.663100    0.214000
B   -10.688900   -3.559100   -3.852700
B    -4.743900   -3.802500   -3.769100
N    -8.935300   -3.986800   -2.362100
N    -6.588300   -3.421800   -2.347900
N    -8.824700   -2.182100   -4.267100
N    -6.492900   -2.632400   -4.838100
N    -8.932900   -4.746700   -4.864700
N    -6.621600   -5.188300   -4.251100
O   -10.265200   -4.067000   -2.491800
O    -5.233600   -3.323400   -2.443900
O   -10.150100   -2.189400   -4.083900
O    -5.169200   -2.884500   -4.850500
O   -10.265900   -4.482000   -4.907400
O    -5.282500   -5.189300   -4.028800
C    -8.449700   -3.861700   -1.143700
C    -7.047000   -3.620000   -1.140100
C    -8.308900   -1.234500   -5.040800
C    -6.887600   -1.451800   -5.259600
C    -8.520900   -5.942900   -5.257800
C    -7.104400   -6.116700   -5.033700
C    -8.446000   -3.910300    1.611500
C    -7.069700   -3.799100    1.593700
F   -12.045100   -3.503800   -3.845700
F    -3.409300   -3.859900   -3.742400
C    -9.118400   -4.021600    2.813900
H   -10.048900   -4.052900    2.828100
C    -8.412800   -4.089400    3.991400
H    -8.865200   -4.211100    4.793600
C    -7.073600   -3.978100    3.989600
H    -6.604800   -4.002500    4.793600
C    -6.393500   -3.832100    2.796100
H    -5.466200   -3.753900    2.803200
C    -9.059600   -0.108800   -5.618600
C    -9.954700    0.601900   -4.827200
H   -10.122200    0.328600   -3.954000
C   -10.597000    1.722000   -5.339700
H   -11.196400    2.197700   -4.811400
C   -10.345700    2.131300   -6.645200
H   -10.777600    2.881000   -6.988500
C    -9.452100    1.420500   -7.436200
H    -9.283100    1.693500   -8.308300
C    -8.808300    0.300300   -6.923100
H    -8.208900   -0.175600   -7.452800
C    -5.958400   -0.479200   -5.895300
C    -5.088000   -0.912500   -6.888900
H    -5.070800   -1.810000   -7.132600
C    -4.245500   -0.005200   -7.519600
H    -3.664700   -0.293800   -8.185600
C    -4.273500    1.337100   -7.155700
H    -3.708300    1.943900   -7.577300
C    -5.142400    1.770200   -6.161400
H    -5.161100    2.667200   -5.919500
C    -5.984900    0.862400   -5.531600
H    -6.567200    1.152800   -4.866500
C    -9.417100   -6.971000   -5.807100
C   -10.372000   -6.689300   -6.778600
H   -10.463200   -5.822900   -7.102300
C   -11.186200   -7.704200   -7.266900
H   -11.823800   -7.514700   -7.917000
C   -11.048600   -8.999700   -6.784000
H   -11.593400   -9.677600   -7.111200
C   -10.095200   -9.281400   -5.812800
H   -10.002500  -10.148800   -5.489100
C    -9.279500   -8.267000   -5.324000
H    -8.641900   -8.455300   -4.674400
C    -6.306800   -7.220100   -5.645600
C    -6.586600   -7.587500   -6.956300
H    -7.224300   -7.118200   -7.443900
C    -5.912900   -8.655200   -7.537600
H    -6.099900   -8.902100   -8.415000
C    -4.959500   -9.356100   -6.807100
H    -4.508800  -10.070600   -7.196600
C    -4.679700   -8.988600   -5.496200
H    -4.042100   -9.456800   -5.008800
C    -5.353400   -7.919800   -4.915400
H    -5.166400   -7.674600   -4.037600
C    -0.438700   -0.059100   -6.979600
H    -1.369200   -0.052200   -6.970700
C     0.262700    1.118000   -7.214400
H    -0.198600    1.912600   -7.362000
C     1.651500    1.109300   -7.226900
H     2.120600    1.896900   -7.383400
C     2.341900   -0.078200   -7.006300
H     3.270800   -0.083500   -7.015200
C     1.640500   -1.254800   -6.771500
H     2.101800   -2.048200   -6.623900
C     0.250200   -1.244900   -6.759100
H    -0.217400   -2.032500   -6.602500
C    -9.016800    5.172600   -8.352800
H    -9.835800    5.560400   -8.144700
C    -8.897100    4.365900   -9.478700
H    -9.633900    4.214600  -10.023000
C    -7.672400    3.785100   -9.788200
H    -7.591600    3.246200  -10.542400
C    -6.568800    4.011200   -8.973500
H    -5.749700    3.621700   -9.181600
C    -6.690000    4.816200   -7.847600
H    -5.951700    4.967500   -7.301600
C    -7.914700    5.396900   -7.536400
H    -7.995500    5.935900   -6.784000
C    -1.320500    9.051700   -8.656900
H    -2.200000    9.300300   -8.484400
C    -0.478700    8.608300   -7.587900
H    -0.808800    8.540500   -6.719900
C     0.840500    8.279700   -7.870700
H     1.402200    8.013700   -7.178800
C     1.327100    8.335300   -9.130100
H     2.206500    8.086700   -9.302600
C     0.485200    8.778700  -10.199100
H     0.815300    8.846500  -11.067100
C    -0.833900    9.107300   -9.916300
H    -1.395700    9.373300  -10.608200

QM/MM links (counting starts at zero)
  3   25
  4   26
 19   35
 20   46
 21   57
 22   68
 23   27
 24   33
