83
QM: 45 at, MM: 38 at, Links: 4
Fe    3.259200    4.817100   14.814200
N     2.721600    6.808500   14.726700
H     3.532700    7.345000   14.961300
N     3.022200    4.826700   16.893300
N     5.229300    5.232500   15.243200
H     5.322400    6.227600   15.223500
N     3.629100    5.038000   12.765100
N     3.642600    2.868500   15.115000
N     1.435500    4.288900   14.178600
C     4.340600    5.288100   17.480800
H     4.352800    6.276200   17.534000
H     4.439200    4.929500   18.397500
C     5.483300    4.814200   16.629100
H     6.333300    5.207500   16.952400
H     5.556700    3.828800   16.678400
C     3.438300    6.502800   12.447700
H     4.294400    6.982300   12.581700
H     3.180600    6.601500   11.495500
C     2.378600    7.124000   13.317100
H     2.355000    8.103800   13.181100
H     1.489300    6.752900   13.090400
C     2.787100    3.427200   17.317200
H     1.812800    3.252100   17.338800
H     3.138100    3.300700   18.233900
C     3.447500    2.440500   16.394500
C     3.754100    1.167400   16.808500
H     3.594800    0.914500   17.709500
C     4.291600    0.250200   15.929300
H     4.534300   -0.622600   16.213100
C     4.463500    0.658800   14.610400
H     4.801900    0.050000   13.963700
C     4.141500    1.951300   14.239700
H     4.274200    2.211100   13.336800
C     2.598000    4.254100   12.039600
H     2.958600    3.356300   11.830600
H     2.391000    4.704400   11.182000
C     1.321300    4.101200   12.840000
C     0.157200    3.710700   12.228900
H     0.124600    3.605100   11.284500
C    -0.978600    3.471700   12.997700
H    -1.796400    3.206200   12.593600
C    -0.879500    3.632900   14.363900
H    -1.625400    3.450800   14.923800
C     0.309900    4.058200   14.902100
H     0.347100    4.198500   15.842500
C     1.612200    7.263000   15.621700
H     0.798400    6.736300   15.418700
H     1.414000    8.213600   15.430500
C     1.944900    7.111500   17.080600
H     1.275300    7.610400   17.612900
H     2.828800    7.524300   17.250100
C     1.979400    5.687000   17.563600
H     1.088500    5.279800   17.413800
H     2.147400    5.685600   18.539400
C     6.274200    4.696100   14.348200
H     6.213700    3.707900   14.342200
H     7.162100    4.940700   14.710900
C     6.172800    5.193600   12.944500
H     6.996800    4.936500   12.459500
H     6.134000    6.183100   12.964200
C     4.972600    4.679400   12.163800
H     5.014400    5.042100   11.243100
H     5.036300    3.692600   12.098700
N     3.593600    1.018700   11.180100
N     7.012500   -1.355000    9.764600
N     3.370400   -3.382700   11.481700
C     4.695100   -1.264700   10.886300
C     4.077700   -0.006900   11.042000
C     5.968600   -1.332800   10.269200
C     3.980500   -2.457100   11.195800
N     6.148200    9.083600   13.123900
N     8.760700    9.400500    9.563500
N     4.853100    7.271300    9.309200
C     6.580000    8.594400   10.659600
C     6.340000    8.868200   11.998200
C     7.789600    9.035000   10.044500
C     5.635300    7.870300    9.906500
O     5.530900    8.055200   15.651300
H     5.820600    8.449900   16.343300
H     5.810200    8.436000   14.949400
O     6.470200    8.872400   18.125400
H     5.830100    8.463800   18.492100
H     6.521100    9.659000   18.452700

QM/MM links (counting starts at zero)
  1   45
  3   51
  4   54
  6   60
