82
QM: 37 at, MM: 45 at, Links: 6
C     6.799400    1.143700    2.695200
C     6.745900   -0.158000    3.211300
C     5.638800   -0.589800    3.904100
C     4.562600    0.252400    4.080700
C     4.622300    1.542500    3.596700
C     5.740200    2.050100    2.910900
C     6.518800    3.939700    1.383200
C     5.750800    3.458000    2.470400
C     4.912700    4.361800    3.154000
C     4.745800    5.667600    2.734200
C     5.379600    6.100700    1.598800
C     6.242000    5.242300    0.932400
C     6.908300    5.641400   -0.305100
C     6.655100    6.803200   -1.044800
C     7.279500    7.029700   -2.234200
C     8.208300    6.107800   -2.717000
C     8.471500    5.004000   -1.932500
C     9.551400    2.510200   -0.426700
N     7.827500    4.751300   -0.771900
N     8.836500    6.298200   -3.907500
O    10.505800    2.093400   -0.885400
P     9.514700    4.408900    1.722400
P     6.614700    2.092700   -0.996400
S     8.265500    1.522000    1.811700
Fe    8.077100    3.152400    0.419700
H     8.516300    6.829400   -4.427100
H     7.443800   -0.710400    3.073700
H     9.391900    5.720200   -4.014200
H     5.584200   -1.380200    4.232100
H     3.781500   -0.006200    4.564700
H     3.869100    2.078100    3.704500
H     4.437100    4.106400    3.933900
H     4.100000    6.221900    3.222800
H     5.295300    6.901100    1.318900
H     6.056700    7.368400   -0.711100
H     7.129700    7.866900   -2.752600
H     9.125700    4.327600   -2.202100
C    10.865200    3.458900    2.493400
C     8.785100    5.259800    3.135600
C    10.360500    5.682500    0.758100
C     9.873400    6.985200    0.680100
C    10.486800    7.896500   -0.159400
C    11.567000    7.527900   -0.925600
C    12.053800    6.264200   -0.856700
C    11.464400    5.341700   -0.024100
C     6.401800    0.324600   -0.661800
C     4.930100    2.734300   -1.032200
C     7.157700    2.112100   -2.721600
C     6.660800    3.037700   -3.641400
C     7.145600    3.068200   -4.923700
C     8.126000    2.196500   -5.321700
C     8.630000    1.280500   -4.436200
C     8.165100    1.226600   -3.142500
H    11.448200    4.115700    2.901700
H    11.362400    3.034600    1.823600
H    10.571500    2.872600    3.188400
H     9.357400    5.757600    3.589800
H     8.321500    4.642200    3.727500
H     8.084200    5.932100    2.798500
H     9.125500    7.256200    1.215700
H    10.147100    8.658300   -0.080300
H    11.941700    8.010200   -1.525400
H    12.813400    6.056700   -1.330400
H    11.814500    4.495800    0.045900
H     7.264400   -0.090400   -0.745500
H     5.778500   -0.046700   -1.318900
H     5.999800    0.280400    0.114700
H     4.621300    2.579700   -0.240900
H     4.432100    2.299300   -1.731800
H     4.911300    3.607900   -1.169800
H     5.938000    3.639000   -3.360400
H     6.811700    3.561100   -5.516600
H     8.412800    2.355400   -6.067100
H     9.199900    0.763300   -4.645000
H     8.480100    0.560800   -2.534700
F    12.823900    3.502600   -5.649700
F    12.229900    4.117300   -3.588700
F    12.011400    6.239900   -4.298600
F    12.572100    5.585600   -6.367600
F    13.921200    5.163200   -4.628900
F    10.881200    4.578700   -5.320500
P    12.390600    4.862200   -4.970400

QM/MM links (counting starts at zero)
 21   37
 21   38
 21   39
 22   45
 22   46
 22   47
