54
QM: 33 at, MM: 21 at, Links: 2
Fe    5.231900    4.158500    0.000000
N     6.584600    3.526400   -1.241400
N     5.237500    5.589000   -1.256700
N     4.003500    8.549900   -2.609800
N     1.912300    8.134000    0.991800
N     3.862200    5.289600    0.923900
C     7.319300    2.428600   -1.169100
C     8.289600    2.046000   -2.141200
C     8.440300    2.861000   -3.266600
C     7.686700    4.025400   -3.376100
C     6.791800    4.374700   -2.342700
C     6.019400    5.539100   -2.281400
C     4.352000    6.603700   -0.930500
C     4.135400    7.684900   -1.863200
C     3.683200    6.404100    0.254000
C     2.713000    7.402100    0.613000
C     3.287600    5.173200    2.248500
N     6.584600    4.790600    1.241400
N     5.237500    2.728000    1.256700
N     3.862200    3.027400   -0.923900
C     7.319300    5.888400    1.169100
C     6.791800    3.942300    2.342700
C     6.019400    2.777900    2.281400
C     4.352000    1.713300    0.930500
C     3.683200    1.912900   -0.254000
C     3.287600    3.143800   -2.248500
C     8.289600    6.271000    2.141200
C     7.686700    4.291600    3.376100
C     4.135400    0.632100    1.863200
C     2.713000    0.914900   -0.613000
C     8.440300    5.456000    3.266600
N     4.003500   -0.232900    2.609800
N     1.912300    0.183000   -0.991800
N     1.563700    3.692700    1.304900
C     2.392700    3.958900    2.344800
C     2.279600    3.193700    3.496500
C     1.365900    2.129200    3.564300
C     0.565200    1.896300    2.430200
C     0.668800    2.678100    1.344300
C     2.392700    4.358100   -2.344800
N     1.563700    4.624300   -1.304900
C     2.279600    5.123300   -3.496500
C     0.668800    5.638900   -1.344300
C     1.365900    6.187800   -3.564300
C     0.565200    6.420700   -2.430200
P     1.818100    8.147300    5.473500
F     1.780400    8.167300    4.028500
F     1.629700    9.714300    5.473500
F     0.292000    8.001000    5.473500
F     1.949900    6.587100    5.473500
F     3.419500    8.267100    5.473500
F     1.780400    8.167300    6.918500
O     5.793300    6.637000    5.473500
O     4.851300    4.274900    5.473500

QM/MM links (counting starts at zero)
 16   34
 25   39
