111
QM: 23 at, MM: 88 at, Links: 8
Fe    4.328500    0.821300    5.575600
P     6.161900    1.835600    4.776200
C     6.057600    1.941000    2.897000
C     5.319500    0.722300    2.402100
P     3.762700    0.628700    3.420400
H     5.853700   -0.070300    2.549900
H     5.115200    0.817500    1.457100
H     6.953000    1.965800    2.515500
H     5.572500    2.728100    2.644400
P     4.877700    0.789500    7.723900
C     3.320400    0.736400    8.716700
C     2.414200    1.842600    8.184000
P     2.569300    1.960200    6.294800
H     2.727700    2.688100    8.538000
H     1.496100    1.686800    8.419400
H     3.511100    0.892100    9.668600
H     2.895100   -0.125400    8.618800
C     4.782100   -1.213200    5.383300
C     3.486300   -1.040200    5.972600
H     2.713200   -1.325700    5.438300
H     3.355300   -1.311600    6.902200
H     5.521400   -1.554900    5.953700
H     4.854200   -1.600300    4.488100
C     2.939000   -0.885600    2.768100
C     1.620300   -1.135400    3.108300
C     0.918100   -2.219900    2.570500
C     1.562800   -3.070900    1.675300
C     2.885400   -2.852500    1.345400
C     3.573100   -1.763600    1.869500
H     4.457100   -1.615500    1.615200
H     3.309300   -3.435300    0.776700
H     1.105600   -3.792200    1.311000
H     0.021800   -2.359400    2.811100
H     1.190900   -0.563400    3.696000
C     2.775600    1.893400    2.513800
C     1.933400    1.616600    1.441600
C     1.240000    2.625400    0.761200
C     1.393000    3.939200    1.187300
C     2.234100    4.243100    2.223400
C     2.914500    3.229900    2.876400
H     3.484600    3.441800    3.596300
H     2.363500    5.134100    2.498300
H     0.959100    4.611800    0.726800
H     0.677400    2.418900    0.063600
H     1.806900    0.734200    1.180400
C     6.718800    3.566200    5.142700
C     6.360900    4.649600    4.333400
C     6.708500    5.973200    4.682200
C     7.467600    6.214300    5.816300
C     7.847100    5.164300    6.615300
C     7.469400    3.862400    6.281900
H     7.716900    3.171500    6.862700
H     8.380000    5.311400    7.359300
H     7.700900    7.093400    6.022500
H     6.438000    6.674900    4.132400
H     5.863100    4.495000    3.556800
C     7.811300    0.934300    4.843800
C     7.807400   -0.429300    4.553400
C     8.976000   -1.168900    4.472600
C    10.192900   -0.562300    4.697700
C    10.228800    0.798000    4.998400
C     9.052200    1.512800    5.058500
H     9.091700    2.424300    5.242400
H    11.047900    1.198100    5.190800
H    10.985200   -1.062900    4.654700
H     8.949300   -2.071800    4.276700
H     6.990700   -0.883400    4.424500
C     2.174800    3.812700    6.232100
C     3.121300    4.739400    5.859200
C     2.898400    6.098600    5.969200
C     1.681500    6.569000    6.479500
C     0.721700    5.626100    6.890200
C     0.966400    4.246300    6.761300
H     0.320300    3.634300    7.062000
H    -0.078400    5.911500    7.232100
H     1.517400    7.482700    6.563700
H     3.539100    6.710600    5.687400
H     3.950300    4.431200    5.537900
C     0.926600    1.288900    5.763000
C     0.216300    1.829600    4.701100
C    -0.975900    1.282400    4.287000
C    -1.462300    0.120000    4.886700
C    -0.763900   -0.429300    5.957200
C     0.416500    0.137300    6.379900
H     0.883300   -0.240100    7.094700
H    -1.081500   -1.198100    6.376400
H    -2.266700   -0.255200    4.611800
H    -1.453200    1.669500    3.584300
H     0.534900    2.607000    4.278500
C     5.682800    2.194000    8.605000
C     6.651000    2.059900    9.620500
C     7.144800    3.167200   10.242500
C     6.693900    4.444200    9.960700
C     5.727300    4.604200    8.979600
C     5.267000    3.485100    8.266500
H     4.664100    3.606200    7.579200
H     5.398200    5.447600    8.799200
H     7.052100    5.169700   10.409200
H     7.801900    3.053600   10.895400
H     6.935700    1.215400    9.857600
C     5.831400   -0.626100    8.390200
C     5.284700   -1.611200    9.228700
C     6.046100   -2.674100    9.675500
C     7.372900   -2.784400    9.299200
C     7.948200   -1.822000    8.474400
C     7.178200   -0.776400    8.017400
H     7.579400   -0.133000    7.446900
H     8.852800   -1.889000    8.237300
H     7.882900   -3.503400    9.610200
H     5.659900   -3.328300   10.218500
H     4.389200   -1.533300    9.498500

QM/MM links (counting starts at zero)
  1   45
  1   56
  4   23
  4   34
  9   89
  9  100
 12   67
 12   78
