75
QM: 11 at, MM: 64 at, Links: 7
C     1.114500    5.136000    2.468700
C     3.302300    7.932000    2.014800
C     3.159200    7.651300    3.388700
C     3.287700    6.240300    3.927600
C     4.495700    5.507200    3.580500
C     3.206000    3.629000    1.228300
Fe    2.843700    4.797800    2.479700
O    -0.019300    5.381600    2.456600
O     3.396500    2.888400    0.339800
P     3.287800    6.394400    1.025400
P     2.601500    3.122200    3.945100
C     2.993500    8.729800    4.257800
C     3.050400   10.031800    3.794100
C     3.301400   10.292200    2.449300
C     3.391600    9.243200    1.556000
C     2.008100    6.596800   -0.269400
C     0.869100    7.359500   -0.024300
C    -0.175100    7.331800   -0.937000
C    -0.083600    6.556100   -2.082800
C     1.043700    5.819300   -2.335200
C     2.092700    5.835900   -1.422500
C     4.849800    6.460100    0.068000
C     5.052800    7.472200   -0.866600
C     6.292900    7.608800   -1.483200
C     7.323700    6.733400   -1.189500
C     7.107100    5.690000   -0.305900
C     5.877900    5.545900    0.335000
C     2.811300    3.540300    5.733700
C     1.911700    4.376900    6.432800
C     2.220600    4.729700    7.765500
C     3.376500    4.299400    8.379600
C     4.267900    3.505200    7.682900
C     3.988800    3.126600    6.374500
C     0.667400    4.895900    5.784600
C     0.065700    6.031600    6.160900
C     1.048200    2.158900    3.869400
C     0.487100    1.898500    2.628900
C    -0.638500    1.080400    2.510000
C    -1.201300    0.526300    3.607200
C    -0.684400    0.790400    4.871900
C     0.449100    1.610400    4.990900
C     3.833000    1.772900    3.733400
C     5.096800    2.064700    3.243100
C     6.055200    1.069300    3.131400
C     5.748100   -0.234500    3.451900
C     4.500300   -0.541100    3.905800
C     3.536000    0.454300    4.061100
H     2.839800    8.532200    5.316100
H     2.952300   10.859200    4.490800
H     3.358600   11.320900    2.087600
H     3.542100    9.437100    0.509800
H     0.795600    7.959700    0.873900
H    -1.064500    7.922800   -0.752500
H    -0.897000    6.537700   -2.791600
H     1.102300    5.226400   -3.228500
H     2.981600    5.244900   -1.626400
H     4.249300    8.162900   -1.092400
H     6.448400    8.421400   -2.184700
H     8.287200    6.833200   -1.675000
H     7.914500    4.986400   -0.097100
H     5.708800    4.746300    1.043800
H     1.518200    5.355700    8.301900
H     3.593100    4.598500    9.394300
H     5.181200    3.158000    8.156300
H     4.678600    2.493200    5.825900
H     0.944700    2.327000    1.747800
H    -1.060000    0.868000    1.529300
H    -2.069200   -0.110800    3.495500
H    -1.146700    0.350900    5.753100
H     0.873700    1.828300    5.971600
H     5.333800    3.084200    2.985800
H     7.051000    1.311200    2.767300
H     6.498500   -1.015700    3.349900
H     4.257000   -1.569800    4.175200
H     2.536400    0.203100    4.418000

QM/MM links (counting starts at zero)
  1   14
  2   11
  9   15
  9   21
 10   27
 10   35
 10   41
