78
QM: 61 at, MM: 17 at, Links: 2
Fe    8.558500   12.201000    6.038800
O     9.885500   11.273200    6.966900
O     9.550400   12.235200    4.422000
N     9.276400   13.948100    6.427800
N     7.703400   10.500600    5.688900
O     9.984300    8.471700    0.406000
N     7.403600   12.148800    7.660300
O    14.378300   13.097000    9.596200
N     7.150900   13.250600    5.133100
C     6.599800   11.051900    7.693600
C     7.369800   14.597500    5.220800
C    10.390100   14.183000    7.056800
H    10.667700   15.068500    7.128300
C     8.502500   15.030600    5.945200
C     9.605400   11.275400    3.517900
C     5.868900    9.040600    6.610800
H     5.917800    8.427000    5.913000
C    11.865500   10.929500    8.170600
H    11.721700   10.012000    8.114700
C    11.215300   13.185200    7.644800
C    13.235900   12.763600    8.906100
C     6.715100   10.153900    6.619700
C     7.974700    9.732000    4.657200
H     7.541000    8.910400    4.612400
C    10.413500   11.453900    2.411800
H    10.911500   12.236900    2.339900
C     6.483700   15.538300    4.626100
C     9.792200    9.304500    1.517600
C     5.673900   10.884200    8.740800
C    10.504600   10.518900    1.422200
H    11.040400   10.682100    0.679500
C    10.944300   11.792800    7.572600
C     8.864100   10.046400    3.616600
C     7.373600   13.020400    8.684200
H     7.970800   13.734200    8.680000
C    12.395500   13.657800    8.318100
H    12.582300   14.568600    8.352000
C     5.202800   13.671500    3.819600
H     4.486000   13.329400    3.336300
C     8.709400   16.388200    6.066100
H     9.446700   16.694800    6.542300
C    12.965700   11.383400    8.832900
H    13.542400   10.777300    9.238800
C     6.506900   12.902800    9.727100
H     6.493500   13.551300   10.393100
C     9.013100    9.101900    2.562700
H     8.538300    8.303500    2.612900
C     5.638300   11.815900    9.801400
H     5.059000   11.708800   10.521200
C     4.837500    9.715500    8.713100
H     4.235500    9.551600    9.402300
C     6.759400   16.906900    4.772600
H     6.204300   17.541500    4.380600
C     7.845300   17.301600    5.492600
H     8.010700   18.210200    5.601600
C     4.938700    8.843800    7.658100
H     4.378100    8.101700    7.631600
C     5.380500   15.005600    3.902800
H     4.780400   15.580600    3.485700
C     6.096900   12.796600    4.461900
H     5.948900   11.880300    4.416500
C     9.068300    7.381500    0.332800
H     9.235300    6.876400   -0.466800
H     8.169700    7.718100    0.316500
H     9.183800    6.814200    1.098800
C    14.541700   14.481100    9.873500
H    14.583500   14.970100    9.048700
H    15.355400   14.614400   10.366000
H    13.798300   14.793500   10.394000
S    13.587900    7.674300    7.518300
N    14.199000    8.288700   10.148600
C    13.959300    8.045300    9.072500
C     8.351700   16.452100   10.384900
N     8.661100   15.941700    9.503000
C     7.954700   17.155300   11.639600
H     7.525800   17.984900   11.418900
H     8.735600   17.328700   12.169500
H     7.346500   16.602700   12.136500

QM/MM links (counting starts at zero)
  5   61
  7   65
