123
QM: 55 at, MM: 68 at, Links: 4
Fe   10.192500    6.806200   12.176500
O    10.379200    4.901100   12.377200
O    10.627900    7.606000   13.853700
O    10.505900   -0.594400    9.252700
O    10.308700    0.849300    7.527600
O    10.505100   13.817300   15.243000
O    11.215400   12.932400   17.161700
N     9.481500    6.447800   10.227300
N     9.870400    8.780100   11.444300
N     8.145000    6.630400   12.804800
N     6.262300    6.867000   13.931300
N    12.266800    6.909900   11.603500
N    14.441500    7.120700   11.808300
C    10.388700    3.910900   11.505700
C    10.778400    2.636200   11.908600
C    10.826000    1.577300   11.064900
C    10.463000    1.741600    9.700800
C    10.449700    0.551500    8.839600
C    10.083200    2.984300    9.272300
C    10.026000    4.098400   10.143200
C     9.508700    5.326400    9.592900
C     8.820600    7.582700    9.604400
C     9.598200    8.848800    9.964200
C     9.944400    9.847600   12.107900
C    10.338800    9.972600   13.486000
C    10.391300   11.266800   14.049000
C    10.782300   11.461700   15.375600
C    10.831000   12.849100   15.887200
C    11.136100   10.372200   16.154300
C    11.070200    9.069400   15.622200
C    10.666600    8.831600   14.334800
C     7.455500    7.397700   13.665900
C     6.155400    5.710000   13.222600
C     7.313300    5.558100   12.520400
C    13.259100    7.251800   12.401800
C    14.222600    6.672100   10.535800
C    12.870600    6.531200   10.416400
H    11.004300    2.503900   12.800600
H    11.093300    0.739000   11.368600
H     9.839600    3.097100    8.381500
H     9.174300    5.311700    8.726100
H     7.909100    7.628100    9.936700
H     8.807800    7.450400    8.644900
H    10.442800    8.886800    9.485500
H     9.088500    9.655200    9.785400
H     9.758200   10.639300   11.657300
H    10.146600   11.996100   13.526400
H    11.404200   10.503300   17.034800
H    11.303700    8.347500   16.160500
H     7.779000    8.191800   14.025200
H     5.431100    5.127900   13.220900
H     7.521200    4.852100   11.951500
H    13.143600    7.550900   13.274200
H    14.857100    6.493200    9.880700
H    12.421600    6.234600    9.659300
C    10.134100   -0.278200    6.644600
C    10.203900    0.277000    5.234600
C    11.246000   14.262200   17.735300
C    11.524200   14.136000   19.185700
C     5.234000    7.465100   14.774500
C    15.750000    7.407500   12.383300
H     9.278200   -0.701000    6.823400
H    10.848300   -0.915500    6.806600
H     9.499900    0.918000    5.114100
H    10.099500   -0.436300    4.601300
H    11.052400    0.704700    5.097300
H    10.377200   14.661700   17.578400
H    11.924900   14.785500   17.281400
H    10.846000   13.594200   19.596000
H    11.532500   15.002400   19.598800
H    12.381500   13.716800   19.301800
H     4.886600    6.772600   15.476700
H     4.388400    7.765300   14.103600
H     5.692000    8.292300   15.196500
H    15.659700    7.539800   13.330200
H    16.100000    8.206600   11.982300
H    16.351900    6.677000   12.220500
O    11.519100   10.000800   21.016700
C     8.404100    4.012600    4.105800
C     9.607600    3.766200    3.412800
C     9.775300    2.654600    2.592300
C     8.733700    1.730500    2.424800
C     7.533800    1.984200    3.066500
C     7.401400    3.084800    3.878600
C     9.512200    6.031100    5.625800
C    10.575600    5.221000    6.107200
C    11.654900    5.775000    6.781700
C    11.750000    7.132900    6.987100
C    10.746200    7.966300    6.519400
C     9.639500    7.406200    5.874600
C     7.263000    5.034700    6.381500
C     7.287600    3.805500    7.010900
C     6.653700    3.592200    8.310900
C     5.998800    4.637600    8.887000
C     5.937600    5.860800    8.262700
C     6.591800    6.067900    7.035300
C     7.314900    6.378000    4.015000
C     5.947300    6.295900    3.825000
C     5.253500    7.056900    2.880700
C     5.935100    7.959000    2.093300
C     7.316000    8.093800    2.241800
C     7.976300    7.315500    3.165100
B     8.137100    5.354600    5.017400
H    10.306500    4.372900    3.497200
H    10.582500    2.524700    2.149300
H     8.853600    0.974300    1.894300
H     6.825700    1.394700    2.945100
H     6.588400    3.217200    4.309800
H    10.532600    4.300600    5.977200
H    12.329300    5.213700    7.089600
H    12.479700    7.489600    7.437100
H    10.801500    8.885500    6.649700
H     8.966600    7.973700    5.576400
H     7.728400    3.092200    6.607700
H     6.688300    2.758800    8.723300
H     5.583100    4.515100    9.709700
H     5.484800    6.567900    8.664500
H     6.556300    6.906200    6.632900
H     5.469100    5.700200    4.354700
H     4.334400    6.956400    2.782600
H     5.479700    8.478600    1.471200
H     7.782300    8.704100    1.717800
H     8.898500    7.400100    3.236600

QM/MM links (counting starts at zero)
  4   55
  6   57
 10   59
 12   60
