125
QM: 57 at, MM: 68 at, Links: 2
Fe   -1.010900    5.438700   19.048400
O    -0.816700    7.228100   18.485200
O    -2.551000    4.896000   18.085300
O     2.459300   12.550700   19.438400
O     3.707500   11.076100   20.515700
O    -5.838400   -0.099000   16.100100
O    -4.509800   -1.069700   17.606400
N     0.704500    5.607700   20.197900
N    -0.952200    3.546600   19.949600
N    -2.242100    6.071300   20.676100
N    -4.068100    6.497900   21.786400
N     0.180300    4.729500   17.416500
N     1.295100    3.460600   16.022700
C     0.013800    8.172700   18.872400
C    -0.207100    9.492700   18.403300
C     0.646900   10.504800   18.723300
C     1.764700   10.294800   19.526900
C     2.654500   11.404800   19.798300
C     1.988000    9.012800   20.019400
C     1.120300    7.953900   19.728900
C     1.437700    6.663300   20.296500
C     1.187600    4.333400   20.792200
C    -0.035400    3.481300   21.097900
C    -1.657500    2.542100   19.590600
C    -2.643200    2.526900   18.533700
C    -3.262700    1.321100   18.212100
C    -4.233000    1.231900   17.235700
C    -4.944400   -0.018500   16.918900
C    -4.585300    2.389800   16.539900
C    -4.010700    3.585800   16.827300
C    -3.028800    3.709800   17.825900
C    -3.501500    5.754600   20.853100
C    -3.125300    7.351100   22.233200
C    -2.014600    7.087700   21.556400
C     0.755900    3.550900   17.229700
C     1.066800    4.633700   15.387500
C     0.383600    5.404200   16.246000
H    -4.949600    6.442400   22.077800
H     1.746500    2.727100   15.672000
H    -0.949300    9.662500   17.869600
H     0.485400   11.356900   18.386500
H     2.721800    8.863700   20.571500
H     2.232200    6.587100   20.774400
H     1.762300    3.893700   20.146500
H     1.697800    4.535800   21.592600
H    -0.511000    3.817500   21.871700
H     0.197000    2.550800   21.243800
H    -1.520400    1.751000   20.060900
H    -3.019700    0.551700   18.675100
H    -5.233600    2.333200   15.875000
H    -4.268000    4.339900   16.347500
H    -3.941700    5.086400   20.378000
H    -3.238300    7.987700   22.902300
H    -1.202700    7.532800   21.649700
H     0.763700    2.865300   17.856900
H     1.338900    4.861200   14.527200
H     0.092700    6.271500   16.081100
C     4.616000   12.150200   20.907600
C     5.613300   11.628900   21.744800
C    -5.207700   -2.323400   17.365100
C    -4.497500   -3.356100   18.157600
H     5.067600   12.503900   20.127500
H     4.140100   12.866300   21.357900
H     6.086300   10.921600   21.300800
H     6.233500   12.310200   22.014400
H     5.166800   11.279600   22.521800
H    -6.134400   -2.230900   17.638100
H    -5.170200   -2.523600   16.417200
H    -4.966300   -4.190800   18.091600
H    -3.602700   -3.463900   17.825200
H    -4.466400   -3.079700   19.077800
O     1.736100    0.715000   15.367900
C     2.363800   -0.272100   14.628700
C     2.151400   -1.584500   14.866500
H     3.326400   -0.181700   14.714300
H     2.111000   -0.156700   13.699500
H     2.420000   -1.794500   15.764000
H     2.656100   -2.118800   14.248100
H     1.217400   -1.769500   14.758700
H     0.865500    0.827100   15.063100
C     5.349800    6.310700   19.918200
C     4.691400    5.224600   19.348700
C     3.905600    5.324800   18.215000
C     3.728600    6.529400   17.598200
C     4.335900    7.631800   18.128100
C     5.131800    7.528400   19.270000
C     7.094800    7.450100   21.699200
C     7.895200    8.115000   20.788100
C     8.626500    9.231500   21.082000
C     8.591100    9.752800   22.331500
C     7.839400    9.163000   23.286000
C     7.101900    8.014900   22.979000
C     7.343700    4.900300   21.112200
C     8.058700    4.396500   22.200200
C     8.957200    3.357200   22.106300
C     9.211400    2.775000   20.907600
C     8.587000    3.250600   19.807200
C     7.676900    4.287700   19.906500
C     5.123800    5.745900   22.437700
C     4.930700    4.486800   22.994300
C     3.901100    4.188600   23.882500
C     3.029800    5.165900   24.265000
C     3.166500    6.431500   23.741700
C     4.194700    6.704600   22.846200
B     6.249800    6.112600   21.289400
H     4.793700    4.399800   19.766000
H     3.496200    4.565200   17.866500
H     3.199700    6.595800   16.835800
H     4.212800    8.457800   17.717400
H     5.532600    8.293500   19.617000
H     7.939200    7.766800   19.927700
H     9.140900    9.646200   20.425600
H     9.090300   10.508000   22.547100
H     7.807600    9.516700   24.145400
H     6.606600    7.602400   23.650700
H     7.923100    4.797000   23.029100
H     9.390900    3.043800   22.867400
H     9.811000    2.067700   20.844200
H     8.769200    2.874000   18.976400
H     7.254400    4.591300   19.134900
H     5.517700    3.812100   22.740600
H     3.817900    3.335500   24.240500
H     2.331800    4.973300   24.846200
H     2.577900    7.102900   24.002700
H     4.278600    7.565400   22.505900

QM/MM links (counting starts at zero)
  4   57
  6   59
