95
QM: 35 at, MM: 60 at, Links: 6
Fe   -0.791300    1.323500    3.091700
P    -3.021400    1.336400    2.863400
P     0.289300    3.304400    2.944700
P    -0.035500   -0.406800    4.329400
Si   -1.309100    2.119200    5.129000
C    -3.102900    1.687700    5.574500
C    -3.872200    1.209400    4.492400
C    -1.130600    4.010700    5.177200
C     0.165000    1.879500    7.690800
H    -0.226600    2.700400    7.988900
C    -0.172700    1.350700    6.439100
C    -3.669200    1.684800    6.854100
H    -3.154100    1.983200    7.623800
C    -5.165400    0.724900    4.705900
H    -5.693500    0.351400    3.945300
C    -0.444700    4.557200    4.074000
C    -4.960100    1.200700    7.062300
H    -5.290800    1.222800    7.925000
C    -1.656200    6.262700    5.918500
H    -2.096700    6.817900    6.533500
C    -0.368100    5.946900    3.906700
H     0.048500    6.341800    3.153000
C    -1.727900    4.882200    6.095300
H    -2.237100    4.523500    6.836400
C     1.453700   -0.425000    6.799900
H     1.908700   -1.218100    6.515500
C     1.140500    1.277600    8.484300
H     1.398000    1.618000    9.274000
C     0.486900    0.185600    5.994400
C     1.780000    0.123000    8.038500
H     2.467100   -0.273500    8.566800
C    -0.977900    6.794700    4.825100
H    -0.961700    7.727600    4.678700
C    -5.706000    0.716300    5.991200
H    -6.555500    0.418000    6.119400
C    -3.964600    2.824900    2.162100
H    -3.472100    3.014800    1.363700
C     2.110500    3.432000    3.432100
H     2.532400    2.815100    2.892700
C    -3.793000    0.000200    1.799000
H    -4.774300    0.083100    1.872800
C     0.343500    4.155800    1.281300
H     0.722200    5.034800    1.406200
C     1.497700   -1.192900    3.608300
H     1.898900   -1.781300    4.315300
C     2.766600    4.791200    3.148900
H     2.374600    5.491900    3.649000
H     2.744600    5.087200    2.172400
H     3.718400    4.760800    3.429700
C     1.154400   -2.032100    2.372100
H     0.834200   -1.486700    1.656700
H     0.487000   -2.704300    2.560400
H     1.942400   -2.520600    2.046300
C    -1.000500   -1.958000    4.806100
H    -1.317100   -2.307600    3.943700
C    -1.058300    4.307300    0.694400
H    -0.983500    4.751600   -0.162100
H    -1.633600    4.856800    1.304700
H    -1.478900    3.432200    0.574600
C    -3.401000    0.215300    0.331500
H    -2.428600    0.172300    0.225900
H    -3.688400    1.072300   -0.024600
H    -3.847400   -0.459600   -0.250500
C    -5.438200    2.592300    1.805200
H    -5.980000    2.274500    2.568600
H    -5.580100    1.899200    1.111600
H    -5.866500    3.401800    1.493000
C     2.548200   -0.146600    3.242700
H     3.333400   -0.595600    2.828900
H     2.832100    0.405200    4.004300
H     2.216500    0.459600    2.580000
C    -3.400900   -1.409800    2.235600
H    -3.895400   -2.081400    1.684500
H    -3.665900   -1.570300    3.185700
H    -2.439600   -1.531900    2.165800
C    -3.879800    4.026700    3.104000
H    -4.249500    4.790300    2.655300
H    -2.972500    4.252100    3.354400
H    -4.345200    3.865400    3.896200
C    -2.183200   -1.626100    5.713500
H    -2.730000   -2.452100    5.844300
H    -2.742400   -0.953600    5.371200
H    -1.888500   -1.329000    6.595700
C     2.336100    3.087500    4.903000
H     3.311500    3.070700    5.115800
H     1.946100    2.227900    5.183000
H     1.932000    3.775400    5.435100
C    -0.182100   -3.079000    5.464400
H     0.184100   -2.767400    6.281400
H     0.576000   -3.359600    4.934100
H    -0.820800   -3.872600    5.647900
C     1.245100    3.385800    0.315800
H     0.936600    2.438300    0.255400
H     2.131400    3.412000    0.584400
H     1.212500    3.800300   -0.533700

QM/MM links (counting starts at zero)
  1   35
  1   39
  2   37
  2   41
  3   43
  3   53
