111
QM: 24 at, MM: 87 at, Links: 15
Fe    2.677200   11.500600    5.433600
Al    2.873800    9.789900    3.814000
H     3.309600   10.181400    5.600100
H     1.501800   10.795000    4.764200
H     3.359400   11.600100    4.120300
N     2.094300    8.072600    4.003000
C     2.429800    7.112100    3.043200
C     3.309800    7.299100    2.046500
H     3.366000    6.575700    1.433300
C     4.227700    8.459300    1.727700
N     4.418400    9.365200    2.888700
C     2.327300    9.937000    0.738000
N     1.840800   10.214800    1.974300
C     0.674100   10.856900    2.066100
H     0.340000   11.045100    2.935200
C    -0.078500   11.265000    0.987700
H    -0.907000   11.713500    1.109900
C     0.410700   11.000200   -0.281000
H    -0.071400   11.270600   -1.053500
C     1.608600   10.338800   -0.397900
H     1.956500   10.150400   -1.261800
P     1.670600   13.359300    4.912000
P     4.533900   12.385000    6.188200
P     1.696400   11.159800    7.360300
C     1.734800    5.768700    3.128000
H     2.014100    5.307500    3.946300
H     1.976400    5.226100    2.348500
H     0.764200    5.903500    3.144000
C     5.553300    7.856600    1.216200
H     6.174800    8.579700    0.989600
H     5.379300    7.313700    0.419200
H     5.947600    7.294100    1.915100
C     1.360400    7.581200    5.127400
C     2.032000    6.926000    6.177400
C     1.298200    6.386900    7.236000
H     1.762700    5.944300    7.936800
C    -0.078400    6.473900    7.300900
C    -0.733400    7.125700    6.267100
H    -1.680100    7.199800    6.293900
C    -0.037100    7.678500    5.183600
C     3.528300    6.796700    6.144400
H     3.796300    6.309100    5.337800
H     3.831300    6.307500    6.937700
H     3.933100    7.689100    6.136500
C    -0.849100    5.889800    8.465600
H    -0.790700    6.496600    9.233100
H    -0.467200    5.020200    8.706900
H    -1.788400    5.774800    8.211000
C    -0.799700    8.381500    4.103000
H    -0.768400    9.348800    4.257400
H    -1.731800    8.079300    4.111300
H    -0.397500    8.176500    3.233000
C     5.695700    9.981400    2.998700
C     6.010900   11.210300    2.388700
C     7.312400   11.726000    2.489800
H     7.510400   12.550800    2.062100
C     8.313700   11.084300    3.183600
C     7.991100    9.883900    3.812800
H     8.663700    9.424800    4.302000
C     6.711200    9.336300    3.746100
C     4.999400   12.036800    1.635900
H     5.093600   11.872100    0.674400
H     5.151200   12.987000    1.821000
H     4.095900   11.788300    1.922800
C     9.700100   11.664600    3.293100
H    10.352600   11.019200    2.949900
H     9.898500   11.861300    4.232700
H     9.750700   12.491000    2.768900
C     6.417800    8.093400    4.534400
H     6.076400    8.340600    5.419000
H     7.239800    7.569600    4.636100
H     5.745800    7.558400    4.062600
C     3.633500    9.236100    0.523500
H     4.298900    9.910400    0.236000
H     3.519300    8.598600   -0.225400
C    -0.171600   13.367800    4.885000
H    -0.493300   12.639800    4.313200
H    -0.489200   14.225100    4.532200
H    -0.512200   13.242900    5.795400
C     2.024600   14.016300    3.237400
H     2.982200   14.209500    3.158000
H     1.512400   14.839500    3.094300
H     1.768700   13.351300    2.564600
C     1.916100   14.921900    5.871300
H     1.594600   14.795700    6.788700
H     1.413300   15.648300    5.446500
H     2.868700   15.149500    5.887200
C     5.412500   13.544700    5.085700
H     5.741200   13.061900    4.298800
H     6.169500   13.941400    5.565300
H     4.798500   14.253500    4.801200
C     5.887200   11.222100    6.574400
H     5.590700   10.593900    7.265700
H     6.664800   11.722200    6.899400
H     6.132500   10.726000    5.765700
C     4.585600   13.373700    7.740200
H     3.984600   14.143200    7.657500
H     5.500400   13.688800    7.896400
H     4.299600   12.815100    8.493000
C     1.258500   12.532600    8.516800
H     2.062100   13.054600    8.723000
H     0.891300   12.157900    9.344300
H     0.590800   13.113500    8.096300
C     2.576400   10.051700    8.527100
H     2.693400    9.170400    8.114900
H     2.050900    9.960400    9.349500
H     3.453500   10.432200    8.740300
C     0.059900   10.355400    7.332000
H    -0.548400   10.871500    6.762200
H    -0.301000   10.315800    8.242400
H     0.148100    9.446600    6.975900

QM/MM links (counting starts at zero)
  5   32
  6   24
  9   28
  9   72
 10   52
 11   72
 21   75
 21   79
 21   83
 22   87
 22   91
 22   95
 23   99
 23  103
 23  107
