106
QM: 43 at, MM: 63 at, Links: 6
Fe   12.496400   12.496400   12.496400
N    14.621400   12.200600   12.643400
N    12.765700   10.367300   12.259100
N    16.399500   10.922100   12.546900
N    14.080400    8.627100   11.981700
C    15.718900   12.989700   12.874300
H    15.705100   13.916700   13.037900
C    16.844000   12.195400   12.824300
H    17.734800   12.467600   12.955200
C    12.005900    9.247300   12.045500
H    11.066800    9.224900   12.024800
C    12.805300    8.192900   11.873200
H    12.531400    7.309000   11.706100
C    15.069400   10.958300   12.465900
C    14.044200    9.948600   12.223000
N    12.643400   14.621400   12.200600
N    12.259100   12.765700   10.367300
N    12.546900   16.399500   10.922100
N    11.981700   14.080400    8.627100
C    12.874300   15.718900   12.989700
H    13.037900   15.705100   13.916700
C    12.824300   16.844000   12.195400
H    12.955200   17.734800   12.467600
C    12.045500   12.005900    9.247300
H    12.024800   11.066800    9.224900
C    11.873200   12.805300    8.192900
H    11.706100   12.531400    7.309000
C    12.465900   15.069400   10.958300
C    12.223000   14.044200    9.948600
N    12.200600   12.643400   14.621400
N    10.367300   12.259100   12.765700
N    10.922100   12.546900   16.399500
N     8.627100   11.981700   14.080400
C    12.989700   12.874300   15.718900
H    13.916700   13.037900   15.705100
C    12.195400   12.824300   16.844000
H    12.467600   12.955200   17.734800
C     9.247300   12.045500   12.005900
H     9.224900   12.024800   11.066800
C     8.192900   11.873200   12.805300
H     7.309000   11.706100   12.531400
C    10.958300   12.465900   15.069400
C     9.948600   12.223000   14.044200
C    17.348900    9.786600   12.336700
H    17.247200    9.454100   11.420000
H    18.265500   10.119200   12.433200
C    17.147300    8.651200   13.284300
C    17.965700    8.508200   14.387100
H    18.658400    9.130200   14.523200
C    17.803800    7.493300   15.283000
H    18.374100    7.417500   16.027300
C    16.778600    6.568100   15.076200
H    16.642500    5.873700   15.694800
C    15.975700    6.671500   13.980400
H    15.298500    6.033900   13.847800
C    16.132400    7.698400   13.048300
C    15.277800    7.760400   11.831800
H    15.815400    8.092900   11.082300
H    14.983200    6.852400   11.606100
C    12.336700   17.348900    9.786600
H    11.420000   17.247200    9.454100
H    12.433200   18.265500   10.119200
C    13.284300   17.147300    8.651200
C    14.387100   17.965700    8.508200
H    14.523200   18.658400    9.130200
C    15.283000   17.803800    7.493300
H    16.027300   18.374100    7.417500
C    15.076300   16.778600    6.568100
H    15.694800   16.642500    5.873700
C    13.980400   15.975700    6.671500
H    13.847800   15.298500    6.033900
C    13.048300   16.132400    7.698400
C    11.831800   15.277800    7.760400
H    11.082300   15.815400    8.092900
H    11.606100   14.983200    6.852400
C     9.786600   12.336700   17.348900
H     9.454100   11.420000   17.247200
H    10.119200   12.433200   18.265500
C     8.651200   13.284300   17.147300
C     8.508200   14.387100   17.965700
H     9.130200   14.523200   18.658400
C     7.493300   15.283000   17.803800
H     7.417500   16.027300   18.374100
C     6.568100   15.076300   16.778600
H     5.873700   15.694800   16.642500
C     6.671500   13.980400   15.975700
H     6.033900   13.847800   15.298500
C     7.698400   13.048300   16.132400
C     7.760400   11.831800   15.277800
H     8.092900   11.082300   15.815400
H     6.852400   11.606100   14.983200
Cl   11.470000    9.018200   17.162800
Cl   13.492800    8.108400   15.401900
C    12.045500    8.992300   15.694800
H    12.200600    9.919300   15.419100
H    11.349400    8.628800   15.109000
F    14.426700    2.803300   11.418300
F    13.572100    4.848500   11.621600
B    13.575500    3.654500   12.269500
F    12.381500    3.006600   12.272900
F    14.223400    3.657900   13.463500
F    17.807200    8.037800    9.192200
F    17.776200    6.380300   10.711900
B    18.608400    7.236600    9.993400
F    19.464700    6.518100    9.161200
F    19.326900    8.068800   10.849700

QM/MM links (counting starts at zero)
  3   43
  4   56
 17   59
 18   72
 31   75
 32   88
