174
QM: 33 at, MM: 141 at, Links: 8
Fe    6.029400    6.360000    8.912100
H     3.684700    6.966300    9.476200
O     7.811800    6.182000    7.967600
N     7.889600    5.966300    6.588500
O     5.380400    4.784300    7.597600
N     6.083600    9.247200    7.879700
O     5.358300    8.049500    7.949400
N     7.192900    9.654000   11.393000
H     7.210200   10.533700   11.368800
N     5.453100    3.283200    5.914700
H     5.936700    2.965900    5.251400
O     6.767300    7.748300   10.311000
O     6.723200    4.822500   10.330900
O     4.118000    6.269700    9.856200
H     3.792500    5.502200    9.755000
C     5.991500    4.233700    6.673200
C     7.426400    4.561800    6.288100
H     7.506600    4.428900    5.299700
C     6.214600    9.869700    9.252200
H     6.817900   10.663800    9.173400
C     6.750500    8.991000   10.322600
C     8.080300    4.898900   10.823800
H     8.516500    5.738000   10.528300
H     8.616200    4.130200   10.505300
C     7.941500    4.869700   12.279200
H     8.699600    4.378100   12.685100
H     7.936400    5.791600   12.641000
C     6.709000    4.213500   12.579600
H     6.867000    3.288900   12.896500
H     6.202900    4.708600   13.272100
C     6.039500    4.213500   11.389700
H     5.173900    4.680800   11.516000
H     5.838000    3.277500   11.140500
C     2.527400    4.925900    3.768900
H     2.697300    5.800400    3.361400
H     1.561100    4.771700    3.821700
H     2.939600    4.224900    3.220000
C     3.117700    4.892100    5.149700
H     4.088100    5.116200    5.066000
C     2.485900    5.914600    6.128800
H     2.424600    6.790900    5.692200
H     3.044800    5.988700    6.930300
H     1.588400    5.614100    6.382900
C     3.020400    3.474200    5.723900
C     1.759300    2.858400    5.898100
H     0.965600    3.344500    5.703900
C     1.675000    1.593300    6.334600
H     0.823300    1.177700    6.385700
C     2.795900    0.878700    6.711300
H     2.704100   -0.007300    7.042300
C     4.041500    1.440500    6.608400
C     4.137500    2.739300    6.100600
C     5.296100    0.683100    7.093000
H     6.053700    0.979900    6.511700
C     5.172800   -0.815700    6.912200
H     5.072500   -1.022000    5.959200
H     4.389500   -1.140700    7.401600
H     5.979300   -1.253900    7.257200
C     5.629500    1.094400    8.455600
H     6.216900    0.426900    8.865300
H     4.805500    1.172100    8.982800
H     6.084000    1.961900    8.432700
C     8.490300    3.707900    6.943700
H     8.456600    2.772900    6.620300
H     8.405700    3.716300    7.930600
C     9.782500    4.422500    6.479000
H    10.112800    3.993600    5.639100
C     9.379000    5.894400    6.178600
H     9.487600    6.098600    5.206000
C    10.327500    6.737100    7.013400
H    10.979200    7.199100    6.427900
H     9.822000    7.420200    7.520800
C    11.019000    5.840500    7.926200
H    11.972300    6.099900    7.985100
H    10.622800    5.920600    8.830200
C    10.924300    4.498900    7.488000
H    10.740000    3.902000    8.256400
H    11.772000    4.216800    7.066000
C     7.111200    6.950600    5.803600
H     6.159200    6.879700    6.068300
H     7.172300    6.707000    4.846300
C     7.556200    8.418000    5.966200
H     8.496300    8.484600    5.663800
H     7.011800    8.969300    5.348500
C     7.466700    9.031500    7.322100
H     7.929200    9.906300    7.295600
H     7.966500    8.454000    7.953600
C     4.779700   10.386500    9.494500
H     4.158400    9.640300    9.689000
H     4.753400   11.034900   10.241900
C     4.443700   11.058500    8.158500
H     4.712400   12.022000    8.171900
C     5.262300   10.278700    7.103000
H     5.875600   10.904900    6.620900
C     4.288000    9.696700    6.147100
H     4.572000    8.788300    5.871600
H     4.212700   10.263400    5.338400
C     2.965900    9.640500    6.885600
H     2.907500    8.832400    7.453000
H     2.203600    9.649600    6.253700
C     2.991900   10.912400    7.735300
H     2.699600   11.695000    7.205800
H     2.403200   10.818900    8.524600
C     9.009300    8.871900   12.835200
C    10.018700    9.384300   11.832800
H     9.593100   10.150100   11.351000
C     9.405000    8.280900   14.021800
H    10.331700    8.216800   14.222400
C     8.473500    7.777600   14.927900
H     8.766700    7.353300   15.726700
C     7.111200    7.898900   14.660700
H     6.478300    7.552300   15.279900
C     6.671300    8.512400   13.509000
C     7.645700    8.986500   12.587900
C    10.322300    8.310100   10.790600
H     9.488400    8.032700   10.355500
H    10.735300    7.537600   11.228000
H    10.935800    8.672600   10.117700
C    11.286300    9.898900   12.448500
H    12.032000    9.760100   11.826700
H    11.464800    9.414600   13.282700
H    11.193800   10.854700   12.639300
C     5.194900    8.651700   13.188700
H     5.100300    8.520100   12.201800
C     4.306100    7.602300   13.864100
H     3.444200    7.559300   13.401800
H     4.163700    7.851000   14.801200
H     4.744900    6.726800   13.821600
C     4.672000   10.065200   13.505700
H     5.144800   10.720300   12.950900
H     4.825200   10.265900   14.451800
H     3.711500   10.107600   13.313500
S     1.178200    8.254600   10.944900
F    -1.207900    7.642700   10.405600
F    -0.338600    8.739400    8.950100
F     0.321800    6.737100    9.087900
O     0.717500    9.476400   11.509200
O     2.348300    8.301100   10.125100
O     1.179400    7.148300   11.859400
C    -0.119400    7.788800    9.763300
F    -3.874100    8.089900   11.507500
F    -3.714500    9.719100    9.706900
S    -5.656800    8.930400   10.249600
F    -3.992200    7.512400    9.330200
C    -4.193300    8.552800   10.166600
O    -6.279500    9.123600    8.998200
O    -5.826700    9.984300   11.303400
O    -6.190000    7.404500   10.946600
O    10.315800    7.997800    3.895000
C     9.520500    7.856200    2.725000
H     9.393700    6.901900    2.497000
H     8.634200    8.279100    2.846600
C    10.262600    8.521400    1.709400
H     9.658700    9.069600    1.154800
H    10.715700    7.860500    1.134900
C    11.113700    9.132600    3.735700
H    10.681200    9.902100    4.182100
H    11.989200    8.979100    4.174000
C    11.318700    9.438200    2.406400
H    12.239900    9.205900    2.128600
H    11.148700   10.392000    2.230400
O     2.699900    3.993300   10.420500
C     2.216000    3.285400    9.414800
H     2.953200    2.834700    8.931100
H     1.742100    3.878100    8.779500
C     1.250700    2.247200    9.979100
H     0.466100    2.134700    9.386700
H     1.698900    1.370800   10.089000
C     0.874500    2.764100   11.202200
H     0.874900    2.059100   11.897100
H    -0.030100    3.162600   11.151800
C     1.824200    3.739300   11.492600
H     2.353800    3.450100   12.277600
H     1.360700    4.579800   11.733700

QM/MM links (counting starts at zero)
  3   67
  3   78
  5   84
  5   92
  7  113
  9   51
 16   62
 18   87
