161
QM: 45 at, MM: 116 at, Links: 4
Fe   -1.671800   15.531300    5.424900
N     0.252600   15.795000    5.144000
N    -2.068800   16.686000    3.910500
N    -3.564300   15.570200    5.936500
N    -1.255400   14.471000    7.030400
C     1.311100   15.481500    6.007200
C     2.523300   16.008100    5.495600
H     3.370900   15.983200    5.925300
C     2.260400   16.550900    4.286300
H     2.893800   16.934400    3.692900
C     0.868300   16.444000    4.070500
C     0.196200   16.955200    2.961700
C    -1.186800   17.064100    2.905900
C    -1.896300   17.739900    1.862200
H    -1.526800   18.072300    1.054800
C    -3.175800   17.813200    2.239900
H    -3.878700   18.221400    1.746900
C    -3.303700   17.173500    3.510500
C    -4.475300   17.097000    4.221200
C    -4.593300   16.330700    5.387700
C    -5.786700   16.158500    6.137400
H    -6.613600   16.601800    5.984900
C    -5.535100   15.247800    7.112200
H    -6.151600   14.930000    7.761500
C    -4.169100   14.861700    6.974600
C    -3.547300   13.907900    7.772700
C    -2.177400   13.718200    7.772700
C    -1.468900   12.816900    8.624700
H    -1.856000   12.155600    9.186600
C    -0.154100   13.075000    8.488900
H     0.550900   12.642400    8.957700
C    -0.008000   14.113900    7.517800
C     1.196900   14.693600    7.140100
C    -3.706700   13.490300    3.315200
H    -4.608800   13.396900    3.598000
C    -3.413000   13.974000    2.046400
H    -4.114900   14.213700    1.451100
C    -2.105500   14.102600    1.655700
H    -1.902700   14.428800    0.786900
C    -1.107000   13.769500    2.492900
H    -0.206900   13.871700    2.208300
C    -1.365100   13.285800    3.752400
H    -0.649300   13.051900    4.332800
C    -2.670200   13.144100    4.163500
H    -2.858900   12.809700    5.032300
C     5.680600   10.635700    1.015800
H     6.397300   10.347100    0.202800
B     4.178400    9.832400    1.049300
H     3.848900    9.042100    0.327400
B     5.432200    9.521600    2.273400
H     5.929300    8.521500    2.353400
B     6.333100   11.026000    2.541300
H     7.423000   11.021600    2.798000
B     5.648500   12.263300    1.486400
H     6.288100   13.072700    1.049300
B     4.316900   11.530200    0.565600
H     4.077900   11.860900   -0.478100
B     3.763200    9.772900    2.772000
B     5.097400   10.510000    3.689100
B     5.214300   12.226100    3.203600
B     3.971400   12.539400    1.975700
B     3.061000   11.018500    1.707800
B     3.605800   11.454400    3.346800
Br    2.677900    8.330900    3.535300
Br    5.578800    9.899700    5.491100
Br    5.851900   13.584900    4.461000
Br    3.118300   14.286200    1.756900
Br    1.161400   11.029100    1.255200
Br    2.317000   11.940800    4.728300
C     0.997200   17.436500    1.787800
C     0.968200   16.734000    0.591600
H     0.452200   15.938900    0.524600
C     1.686100   17.182100   -0.504200
H     1.653500   16.698000   -1.320900
C     2.441800   18.319400   -0.418600
H     2.947000   18.609700   -1.168300
C     2.472400   19.041300    0.749700
H     2.980900   19.843300    0.798100
C     1.756800   18.599400    1.866000
H     1.789000   19.092000    2.677100
C    -5.679000   17.820500    3.713300
C    -6.757300   17.145200    3.166400
H    -6.749600   16.196500    3.125400
C    -7.851300   17.849000    2.673400
H    -8.581900   17.378200    2.292000
C    -7.879100   19.219800    2.736600
H    -8.631300   19.695600    2.407300
C    -6.814400   19.900300    3.279900
H    -6.835500   20.849500    3.318900
C    -5.711200   19.217700    3.771000
H    -4.980800   19.696300    4.144900
C    -4.380100   13.074700    8.695400
C    -5.270500   12.154000    8.168900
H    -5.367800   12.075900    7.227600
C    -6.023400   11.339900    9.019100
H    -6.623000   10.699100    8.654500
C    -5.898500   11.466600   10.379100
H    -6.414000   10.915700   10.957700
C    -5.021400   12.397400   10.913000
H    -4.939900   12.486000   11.856200
C    -4.260300   13.201300   10.074000
H    -3.658000   13.838300   10.442300
C     2.392900   14.429000    8.005200
C     3.579600   13.915800    7.495500
H     3.654600   13.726500    6.567100
C     4.654900   13.676000    8.342000
H     5.461100   13.321100    7.986600
C     4.568800   13.948600    9.683300
H     5.311000   13.781300   10.252600
C     3.411700   14.458000   10.196800
H     3.354400   14.643900   11.126900
C     2.315200   14.708300    9.374500
H     1.517300   15.067500    9.742800
C    -1.363100   18.129500    7.216400
H    -0.893500   17.430100    7.653600
C    -0.752400   18.848100    6.286200
H     0.152200   18.649400    6.074100
C    -1.346500   19.812500    5.653700
H    -0.865400   20.289400    4.987700
C    -2.557200   20.145300    5.895600
H    -2.936300   20.865300    5.408100
C    -3.310200   19.526000    6.801600
H    -4.207500   19.802900    6.950400
C    -2.742100   18.402200    7.575500
H    -3.224500   17.913800    8.234100
C     6.214400   17.405300   10.425600
H     6.389000   17.927000    9.651700
C     5.084100   17.649300   11.190200
H     4.474500   18.327700   10.927900
C     4.843300   16.916700   12.317600
H     4.071600   17.090900   12.844100
C     5.723800   15.926200   12.689700
H     5.556600   15.419900   13.476600
C     6.838800   15.661700   11.938100
H     7.441200   14.974900   12.196700
C     7.078300   16.410100   10.790200
H     7.845500   16.229400   10.258100
C    -2.664100   10.027300    6.461100
H    -2.825900   10.178400    7.383900
C    -3.724000    9.687200    5.609100
H    -4.607500    9.603200    5.947600
C    -3.460800    9.479000    4.282600
H    -4.168200    9.235500    3.698400
C    -2.184800    9.615300    3.784000
H    -2.020700    9.490100    2.857500
C    -1.165800    9.928600    4.615600
H    -0.282400   10.000600    4.271400
C    -1.395600   10.143400    5.956900
H    -0.675700   10.372600    6.533700
C    -0.360200   20.967100    0.385100
H     0.520000   21.198200    0.658600
C    -1.432500   21.274200    1.196200
H    -1.291800   21.733800    2.016700
C    -0.556900   20.326200   -0.814800
H     0.181100   20.132200   -1.380400
C    -2.710700   20.916100    0.814800
C    -2.907300   20.275200   -0.385100
H    -3.787600   20.044100   -0.658600
C    -1.835100   19.968100   -1.196200
H    -1.975800   19.508500   -2.016700
H    -3.448700   21.110100    1.380400

QM/MM links (counting starts at zero)
 11   69
 18   80
 25   91
 32  102
