85
QM: 39 at, MM: 46 at, Links: 0
Fe    4.697700   12.326500   15.710500
C     2.433600   14.055300   16.609500
N     2.888100   14.969800   14.750400
C     2.583800   13.129700   17.719800
N     1.924100   15.645900   15.335900
C     1.834700   13.111300   18.878500
H     1.118800   13.694800   18.989500
N     1.620700   15.087200   16.516200
C     2.167000   12.213400   19.866100
H     1.670700   12.184900   20.652500
N     3.616200   12.288000   17.544700
C     3.229500   11.357500   19.694800
H     3.463300   10.752500   20.361200
N     5.663800   10.755300   16.957100
C     3.941400   11.414900   18.512800
N     6.694300    9.901300   16.945200
C     5.105000   10.613900   18.157500
N     6.724400    9.282700   18.103100
C     4.055600   10.830900   13.193200
N     5.727500    9.712500   18.897800
C     5.258700   11.562000   12.829500
N     3.568000   10.939600   14.432700
C     5.887700   11.557500   11.596600
H     5.557700   11.043500   10.895300
N     2.473000   10.166500   14.448200
C     7.013300   12.332600   11.434500
H     7.455100   12.343500   10.616000
N     2.343000    9.635300   13.254700
C     7.483500   13.085000   12.470600
H     8.237000   13.619600   12.359600
N     3.325400   10.035100   12.433000
C     6.829700   13.044000   13.686700
N     5.729200   12.290800   13.847900
C     7.145900   13.805400   14.884800
N     6.342000   13.726700   15.945400
N     6.860900   14.577500   16.844000
N     7.937900   15.120000   16.329400
N     8.142800   14.652100   15.083800
N     3.229900   13.943000   15.553500
H     7.919500    7.829200   18.530100
C     8.616900    6.929500   20.230300
H     7.828500    6.452100   20.533000
H     9.381200    6.353800   20.390700
C     8.758700    8.044400   21.000400
H     9.041000    8.779300   20.452700
H     9.415700    7.881300   21.681900
H     7.917600    8.257000   21.413300
C     9.816000    7.351300   18.126000
H    10.322900    6.525800   18.170300
H    10.297600    8.023800   18.631700
C     9.720100    7.794400   16.683900
H     9.384300    7.070400   16.148900
H    10.589800    8.048300   16.368800
H     9.123400    8.543300   16.618300
N     8.494700    7.138100   18.745100
C     7.658100    6.067600   18.142200
H     7.457700    6.311900   17.225300
H     6.817700    6.024000   18.624100
C     8.282000    4.706700   18.146300
H     7.655700    4.066300   17.802500
H     8.521800    4.467900   19.045900
H     9.068900    4.713100   17.597400
H     1.155700    8.056700   12.509300
N     0.897000    7.485900   12.083800
C    -0.077500    6.892600   13.124300
H    -0.662300    6.268100   12.666400
H     0.442400    6.380600   13.764700
C    -0.890500    7.800500   13.848600
H    -0.973700    8.619100   13.355500
H    -0.487800    7.980200   14.702100
H    -1.760600    7.416200   13.981300
C     0.231100    7.866100   10.887800
H    -0.581700    8.338200   11.129200
H    -0.031100    7.060000   10.416100
C     1.003400    8.710500    9.970300
H     1.823400    8.268000    9.740100
H     1.200700    9.548900   10.395100
H     0.491200    8.869400    9.173400
C     2.025200    6.560500   12.018800
H     2.380500    6.452200   12.915200
H     2.720500    6.967000   11.479000
C     1.740200    5.218100   11.469800
H     1.345100    5.306200   10.600200
H     1.131800    4.757600   12.053200
H     2.557700    4.720400   11.402800

QM/MM links (counting starts at zero)
