114
QM: 17 at, MM: 97 at, Links: 4
Fe    0.539100    1.807400    7.763600
H    -0.895300    2.109700    7.969100
Si    1.324100    3.700200    8.914100
H     1.860000    3.304800   10.204900
C     2.267000    1.417600    7.457100
O     3.366100    1.175700    7.243300
C     0.199700    3.069500    6.568700
O    -0.084400    3.969300    5.910200
C     0.260400    1.275100    9.438800
O     0.010800    1.072700   10.540300
C    -0.027400    0.172800    6.766700
N    -0.108400   -1.121100    7.222500
C    -0.405900   -2.000300    6.192500
H    -0.517700   -2.940700    6.267300
C    -0.506600   -1.273100    5.071200
H    -0.701100   -1.597000    4.199400
N    -0.271000    0.054300    5.435200
C     2.769000    4.546100    8.043600
C     4.072100    4.245700    8.457700
H     4.200100    3.658100    9.193000
C     5.180600    4.783200    7.822500
H     6.053300    4.560600    8.125200
C     5.024500    5.633000    6.761700
H     5.786000    5.994400    6.324000
C     3.752000    5.964500    6.328400
H     3.637900    6.563400    5.599600
C     2.641900    5.419700    6.961100
H     1.773100    5.647100    6.649800
C     0.001400    4.982500    9.339500
C    -1.302000    4.611700    9.701100
H    -1.549600    3.695700    9.656800
C    -2.239300    5.543400   10.121000
H    -3.111700    5.261500   10.367800
C    -1.901800    6.883400   10.180400
H    -2.539200    7.523700   10.474500
C    -0.645900    7.282000    9.813400
H    -0.418000    8.204100    9.835400
C     0.305300    6.342800    9.407000
H     1.177500    6.636500    9.171400
C    -0.209800   -1.536400    8.602200
C     0.938100   -1.915900    9.309000
C     0.771200   -2.351400   10.616000
H     1.530900   -2.621100   11.118400
C    -0.480700   -2.399200   11.199700
H    -0.572700   -2.686700   12.100500
C    -1.600600   -2.030000   10.476200
H    -2.456500   -2.071900   10.887100
C    -1.497900   -1.600000    9.162600
C     2.330300   -1.862200    8.693300
H     2.266900   -1.364500    7.828300
C     2.838600   -3.263200    8.392400
H     2.893000   -3.776800    9.225200
H     3.727700   -3.207800    7.984000
H     2.222200   -3.708200    7.773900
C     3.310800   -1.108900    9.601600
H     2.940500   -0.229500    9.824500
H     4.166000   -0.994600    9.136100
H     3.453700   -1.621400   10.424800
C    -2.745500   -1.216900    8.378200
H    -2.463600   -0.990600    7.445800
C    -3.404700    0.024000    8.981200
H    -3.705800   -0.176000    9.892200
H    -4.174100    0.284600    8.432900
H    -2.756900    0.758900    9.005300
C    -3.730200   -2.385900    8.298000
H    -4.044300   -2.610800    9.198500
H    -3.282300   -3.163600    7.904400
H    -4.494300   -2.131700    7.739400
C    -0.476900    1.124100    4.487400
C    -1.766800    1.668500    4.379800
C    -1.979300    2.596800    3.364300
H    -2.840900    2.984500    3.265100
C    -0.979900    2.966200    2.504400
H    -1.159700    3.579700    1.801900
C     0.294400    2.444500    2.660300
H     0.985800    2.716200    2.067600
C     0.580100    1.529500    3.669900
C    -2.890100    1.286400    5.323300
H    -2.484300    0.776700    6.081800
C    -3.592100    2.499600    5.913400
H    -2.931200    3.081100    6.344700
H    -4.250700    2.205600    6.576400
H    -4.045200    2.994200    5.199100
C    -3.896200    0.375300    4.651000
H    -4.275000    0.827300    3.868200
H    -4.614600    0.159200    5.282200
H    -3.451500   -0.450700    4.367800
C     1.999400    1.038800    3.869500
H     2.023500    0.502800    4.713300
C     2.440800    0.128500    2.721900
H     1.864800   -0.663800    2.693000
H     3.370400   -0.148900    2.863700
H     2.371100    0.614300    1.873700
C     2.967400    2.214500    4.031900
H     3.028800    2.706100    3.186200
H     3.853300    1.876800    4.278700
H     2.638500    2.813500    4.734500
C     3.891100    6.158200   11.609300
H     4.546400    5.661200   11.077100
H     4.266100    6.351300   12.493500
H     3.076500    5.622900   11.708900
C     3.614200    7.235000   11.029400
H     3.308700    6.971000   10.126000
H     4.483400    7.690300   10.900900
C     2.642700    8.340600   11.475700
H     1.736100    7.943700   11.507700
H     2.881400    8.587900   12.404600
C     2.550400    9.566100   10.712300
H     3.484000    9.873400   10.593200
H     2.233900    9.295400    9.815200
H     1.924600   11.418900   10.342600
H     0.849100   10.518300   11.112900
H     2.113800   11.103100   11.900000
C     1.799700   10.746100   11.043000

QM/MM links (counting starts at zero)
  2   17
  2   28
 11   39
 16   68
