83
QM: 53 at, MM: 30 at, Links: 2
Fe    6.648900    4.274500    7.338000
N     6.889400    2.422400    6.961900
C     5.822100    1.640700    6.719300
C     5.949500    0.312900    6.385400
H     5.186600   -0.230600    6.228000
C     7.232500   -0.206000    6.289500
C     8.354400    0.601000    6.499800
H     9.238200    0.263500    6.413700
C     8.108400    1.915500    6.836700
N     4.636600    2.370300    6.842900
N     4.762400    3.695100    7.235500
C     3.534700    4.174300    7.226300
H     3.304300    5.065800    7.459000
C     2.605600    3.188000    6.825900
H     1.665000    3.286800    6.742100
C     3.346800    2.060400    6.581700
H     3.015900    1.220900    6.287100
N     9.087000    2.895900    7.040800
N     8.633000    4.170700    7.305100
C     9.722200    4.906900    7.453500
H     9.726000    5.836400    7.652500
C    10.882800    4.115200    7.271100
H    11.786400    4.405100    7.325400
C    10.440600    2.854100    7.002100
H    10.977700    2.091900    6.823700
S     7.622300   -1.883000    5.881800
S     5.900100   -2.673400    5.161900
N     6.415600    6.148700    7.622000
C     6.433100    6.648800    8.860100
C     6.302800    7.997600    9.105900
H     6.329600    8.343200    9.990900
C     6.129900    8.835100    8.005300
C     6.080000    8.325700    6.703800
H     5.946900    8.886200    5.948200
C     6.237200    6.955900    6.578600
N     6.567100    5.624400    9.809200
N     6.679300    4.336900    9.322300
C     6.815100    3.571400   10.384200
H     6.907400    2.626600   10.361500
C     6.802300    4.344100   11.555800
H     6.881800    4.027200   12.447700
C     6.651500    5.645200   11.155500
H     6.614500    6.410900   11.715900
N     6.242900    6.242400    5.380700
N     6.496900    4.897000    5.461000
C     6.446200    4.439500    4.227600
H     6.597000    3.535100    3.976700
C     6.134900    5.486900    3.331000
H     6.026800    5.418900    2.388900
C     6.022500    6.610600    4.088400
H     5.826800    7.485300    3.775300
S     5.977800   10.564400    8.349400
S     5.476000   11.401300    6.563400
C     5.790900   -1.913500    3.487200
H     5.644700   -0.930700    3.606700
C     4.551600   -2.489700    2.854900
H     4.419400   -2.087100    1.970500
H     3.775900   -2.297200    3.420600
H     4.655100   -3.459500    2.759300
C     7.047500   -2.096700    2.658600
H     7.243900   -3.053600    2.571900
H     7.798800   -1.648700    3.100400
H     6.912400   -1.709300    1.769300
C     7.088300   11.698800    5.726900
H     7.603300   10.842000    5.696200
C     6.734300   12.112700    4.314100
H     6.194600   12.930000    4.339200
H     6.223900   11.396600    3.882300
H     7.556600   12.279500    3.807400
C     7.910300   12.744200    6.448800
H     8.798400   12.800600    6.039700
H     7.999900   12.493400    7.392100
H     7.463200   13.613300    6.382800
B     8.111700   -0.106800   10.297600
F     9.280900    0.185100    9.620600
F     7.029500    0.458100    9.605700
F     7.926600   -1.490200   10.351700
F     8.167600    0.410200   11.569900
B     9.485900    8.064400   10.370300
F     9.345400    6.790500    9.792600
F     9.299600    9.024400    9.399500
F    10.769300    8.165500   10.927600
F     8.540800    8.208600   11.379900

QM/MM links (counting starts at zero)
 26   53
 52   63
