80
QM: 53 at, MM: 27 at, Links: 1
Fe    4.264600    3.599700   13.140300
N     5.087300    5.100300   14.126000
C     5.998100    5.004500   15.109900
H     6.273500    4.156500   15.377000
C     6.531400    6.076000   15.728900
H     7.153900    5.969500   16.411400
C     6.137200    7.324900   15.333000
H     6.504900    8.077000   15.738600
C     5.191600    7.471100   14.329600
H     4.911200    8.312500   14.049400
C     4.682600    6.327100   13.759500
C     3.602700    6.375900   12.738200
H     3.885300    6.953200   12.011700
H     2.811600    6.770500   13.137200
N     2.726900    3.711100   14.355700
C     2.662100    3.286400   15.634400
H     3.405600    2.877100   16.012300
C     1.524300    3.440900   16.393500
H     1.498400    3.123600   17.266600
C     0.434300    4.063200   15.855900
H    -0.341500    4.173700   16.357600
C     0.500200    4.521900   14.562600
H    -0.226400    4.965200   14.187900
C     1.636800    4.325500   13.832800
C     1.807500    4.758400   12.404200
H     1.500100    4.060700   11.806400
H     1.288000    5.560100   12.234800
N     3.472800    2.114700   12.070300
C     2.326700    1.434000   12.332600
H     1.829700    1.681400   13.077000
C     1.867800    0.409600   11.562100
H     1.080000   -0.030700   11.785200
C     2.594700    0.030000   10.438100
H     2.302700   -0.659900    9.885900
C     3.779500    0.723400   10.167700
H     4.283500    0.506900    9.416800
C     4.197400    1.718300   11.006600
C     5.523400    2.380300   10.845400
H     6.213500    1.793500   11.192300
H     5.695900    2.514800    9.900600
N     5.605400    3.691000   11.544200
N     3.243300    5.027200   12.176200
C     3.618200    4.924700   10.744400
H     3.320300    5.712300   10.262200
H     3.204000    4.144800   10.343600
C     5.125400    4.809900   10.680800
H     5.400000    4.651400    9.763800
H     5.527600    5.642600   10.975700
N     5.321000    2.251000   14.082000
C     6.091800    1.469300   14.401300
N     6.889300    0.490200   14.779200
C     8.183400    0.567400   14.575600
N     9.290600    0.498500   14.429000
C     7.044700    3.952500   11.944900
H     7.067800    4.757600   12.485700
H     7.341000    3.219400   12.506900
C     8.034800    4.112700   10.816000
C     8.722900    3.040500   10.299700
H     8.543400    2.185500   10.620600
C     9.666100    3.204800    9.319100
H    10.118800    2.465200    8.981900
C     9.944000    4.445700    8.836900
H    10.572600    4.548600    8.159300
C     9.296800    5.552900    9.346700
H     9.502000    6.403200    9.030700
C     8.343800    5.383400   10.327400
H     7.900000    6.125400   10.667800
P    12.346400    9.183600    9.719600
F    11.123800    9.882800    9.122000
F    11.456500    8.092800   10.408800
F    13.628500    8.493400   10.306200
F    13.323500   10.260800    9.104000
F    12.233300   10.045600   11.006600
F    12.505900    8.352500    8.450800
C     9.143800    8.426900   12.943400
H     8.350400    8.156100   13.410900
H     9.239400    7.900000   12.145200
H     9.075600    9.354800   12.707200
O    10.212900    8.242400   13.731800
H    10.754000    8.846100   13.606400

QM/MM links (counting starts at zero)
 40   53
