76
QM: 20 at, MM: 56 at, Links: 8
Fe    7.018500    2.744700    0.325800
P     6.661900    1.848400    2.380800
P     9.113600    1.969600    0.600900
P     7.489300    4.876900    0.490000
P     4.949600    3.444800   -0.112200
O     6.785300    1.194500   -1.041500
O     7.200200    2.621900   -2.710600
C     8.140600    0.956900    2.951000
C     8.942200    0.558200    1.775900
C     5.998500    5.884800   -0.026700
C     5.085000    5.071500   -0.961400
C     7.082900    2.344400   -1.495500
H     8.659600    1.534200    3.507800
H     7.888200    0.193000    3.442400
H     8.510500   -0.161100    1.335300
H     9.805900    0.282300    2.061700
H     5.503900    6.132000    0.745100
H     6.283500    6.658300   -0.486000
H     5.469100    4.964600   -1.821300
H     4.226300    5.476500   -1.044200
C     5.356700    0.462500    2.497000
C     5.609600   -0.669800    1.589000
C     6.352200    2.886600    3.952400
C     6.195900    2.248700    5.234300
C     9.976900    1.148300   -0.734400
C    10.624700    2.105100   -1.789300
C    10.442400    2.934400    1.482200
C    11.757600    2.296500    1.762600
C     8.783500    5.565900   -0.627600
C     8.384700    5.661500   -2.136500
C     7.986800    5.645600    2.109800
C     7.935400    7.192500    2.163200
C     3.910400    2.615500   -1.321900
C     3.333400    1.339600   -0.841200
C     3.750400    3.763700    1.215100
C     2.372300    4.417600    0.894600
H     5.343800    0.130800    3.386300
H     4.506100    0.829300    2.280700
H     4.923400   -1.317300    1.697100
H     5.618700   -0.362000    0.694300
H     6.448800   -1.063700    1.802600
H     7.090300    3.473500    4.039200
H     5.560300    3.385800    3.802900
H     6.052800    2.920100    5.894000
H     5.449400    1.671400    5.202300
H     6.979400    1.759100    5.438600
H    10.663100    0.618800   -0.363200
H     9.352600    0.601200   -1.192400
H    11.254400    2.668100   -1.360700
H    11.062100    1.588400   -2.456900
H     9.947800    2.639400   -2.196500
H    10.610300    3.704700    0.961400
H    10.075100    3.194400    2.323400
H    11.626100    1.532600    2.311400
H    12.160100    2.036600    0.946700
H    12.312200    2.916900    2.215200
H     8.983700    6.446200   -0.329800
H     9.552400    5.020400   -0.563500
H     7.617500    6.221300   -2.227300
H     9.101400    6.018800   -2.633200
H     8.175900    4.789200   -2.459600
H     7.394800    5.310700    2.773400
H     8.869500    5.364900    2.296700
H     8.211800    7.478000    3.031100
H     8.525900    7.548200    1.514200
H     7.053600    7.494000    1.998900
H     3.193000    3.199200   -1.547600
H     4.431500    2.435300   -2.092400
H     2.789700    1.497500   -0.084100
H     2.803600    0.955300   -1.536900
H     4.034300    0.736800   -0.618200
H     3.561100    2.921700    1.623700
H     4.173200    4.326700    1.850700
H     2.514400    5.269200    0.503400
H     1.901000    3.864200    0.283100
H     1.871100    4.511700    1.691800

QM/MM links (counting starts at zero)
  1   20
  1   22
  2   24
  2   26
  3   28
  3   30
  4   32
  4   34
