163
QM: 58 at, MM: 105 at, Links: 7
Fe    7.744000    8.979800    7.193800
O     2.168900    9.394900    0.776200
O    11.959600    2.832700    3.043500
O    10.116800   13.740900    0.599200
O     3.346300    3.383700   11.976800
N     7.002800   10.392500    8.349700
N     7.042200   10.397800    9.639500
N     9.062600    9.088800    9.795100
N     9.203100    8.942300    8.529600
N     5.482200    9.160400    5.183900
N     9.063600    6.760500    5.610600
N     9.030100   10.793300    5.131100
N     6.229100    6.925300    8.889100
C     7.930300    9.629200   10.310400
C     6.313000    9.068000    5.992600
C     8.531200    7.590400    6.222400
C     8.610500   10.172100    6.016700
C     6.805600    7.706700    8.262100
C     4.588000    9.205600    4.106400
C     4.252300   10.434500    3.545400
H     4.572700   11.244100    3.925500
C     3.444900   10.455500    2.428000
H     3.218800   11.284900    2.024600
C     2.956600    9.261200    1.882700
C     3.271800    8.045500    2.478200
H     2.926000    7.235500    2.121400
C     4.094900    8.017900    3.594700
H     4.317500    7.191100    4.005500
C     9.808600    5.795200    4.927400
C     9.165600    4.665700    4.426300
H     8.226200    4.558900    4.519200
C     9.927900    3.703000    3.790400
H     9.510900    2.921400    3.445800
C    11.306200    3.873100    3.652700
C    11.934300    5.012000    4.139400
H    12.870600    5.129000    4.031500
C    11.174100    5.977200    4.785300
H    11.589000    6.760200    5.128600
C     9.350200   11.581700    4.020600
C     8.837800   12.857600    3.927000
H     8.321300   13.215400    4.639800
C     9.074900   13.620200    2.795600
H     8.722400   14.499600    2.727500
C     9.830300   13.086400    1.762200
C    10.375100   11.807700    1.868400
H    10.905400   11.454800    1.163300
C    10.139700   11.051800    3.004800
H    10.513100   10.182600    3.089600
C     5.506100    6.002300    9.660200
C     4.977700    4.879600    9.035200
H     5.115000    4.732200    8.106700
C     4.243600    3.972700    9.796200
H     3.873500    3.198700    9.388300
C     4.052800    4.204000   11.153000
C     4.599100    5.341600   11.766800
H     4.467900    5.491500   12.695600
C     5.325800    6.240100   11.015500
H     5.698700    7.014300   11.420900
Br    5.530900    5.182100    5.261700
C     6.087900   11.383700    7.848100
C     4.729500   11.268600    8.130700
H     4.414600   10.550300    8.666500
C     3.835700   12.203600    7.630000
H     2.907000   12.117500    7.812000
C     4.296800   13.266300    6.861500
H     3.685000   13.908400    6.520900
C     5.653500   13.388400    6.592600
H     5.971200   14.121300    6.077700
C     6.550400   12.439700    7.076400
H     7.476300   12.515100    6.878400
C     7.791500    9.611000   11.780000
C     6.569200    9.900300   12.378900
H     5.809400   10.072300   11.834800
C     6.445300    9.942600   13.762000
H     5.604100   10.156400   14.148400
C     7.528700    9.676300   14.591600
C     8.743700    9.341100   13.989800
H     9.492800    9.131700   14.535300
C     8.875500    9.310100   12.614700
H     9.713000    9.080600   12.229700
C     7.408800    9.755100   16.088400
H     7.958700   10.493800   16.422100
H     7.716600    8.913100   16.485200
H     6.472200    9.907800   16.333400
C    10.516500    8.461200    8.177200
C    10.882700    7.166800    8.535300
H    10.282900    6.619900    9.029800
C    12.126000    6.679900    8.166300
H    12.379800    5.797400    8.410600
C    13.002400    7.474500    7.441400
H    13.852600    7.137000    7.184900
C    12.630500    8.758400    7.095400
H    13.233600    9.305000    6.605800
C    11.383400    9.262400    7.454100
H    11.130500   10.144400    7.206000
C     1.710700    8.198700    0.138300
H     1.173400    8.432400   -0.647400
H     1.162500    7.682900    0.766600
H     2.480700    7.661000   -0.140600
C    13.360600    2.990400    2.796700
H    13.721500    2.162000    2.417500
H    13.820500    3.191600    3.638600
H    13.500500    3.726700    2.164800
C     9.603600   15.068500    0.447100
H     9.894900   15.434300   -0.414100
H     9.940100   15.633700    1.173100
H     8.624400   15.045200    0.477800
C     2.763000    2.210400   11.388000
H     2.126100    2.475700   10.692200
H     2.296200    1.695400   12.079000
H     3.469000    1.658200   10.990800
O     7.805600    1.490100    7.690200
C     8.082500    2.747000    7.070100
H     7.264700    3.108800    6.646100
H     8.778300    2.640300    6.373600
C     8.572200    3.686800    8.170000
H     9.539000    3.874600    8.072800
H     8.074100    4.542800    8.152800
C     8.289500    2.915000    9.455900
H     9.131100    2.582200    9.858200
H     7.824300    3.488200   10.115600
C     7.411600    1.770300    9.025400
H     7.553100    0.981200    9.606200
H     6.456000    2.027400    9.062800
O     9.869400    5.554400   13.820800
C     8.679000    5.696900   13.079000
H     8.167000    6.486000   13.387400
H     8.109800    4.891600   13.173100
C     9.122400    5.875200   11.633600
H     9.143900    6.832900   11.385300
H     8.515700    5.395600   11.015100
C    10.524700    5.269700   11.602600
H    10.573900    4.521800   10.955700
H    11.199700    5.951500   11.357900
C    10.739300    4.782200   13.003600
H    10.519300    3.819100   13.074300
H    11.681600    4.913100   13.277400
O     2.784800   11.045800   12.501100
C     2.476600    9.977700   13.402700
H     1.529600   10.025300   13.688200
H     3.053100   10.023200   14.206200
C     2.736600    8.695100   12.631400
H     2.023300    8.030000   12.801200
H     3.609100    8.301500   12.885300
C     2.740600    9.129100   11.160700
H     3.638100    9.015500   10.758600
H     2.082900    8.608400   10.634600
C     2.352800   10.590100   11.223800
H     2.799500   11.100600   10.502700
H     1.373300   10.695400   11.128700
O     8.545100    7.681700    0.576200
C     8.775000    7.464700    1.972600
H     9.651800    7.836300    2.243900
H     8.760800    6.497300    2.182100
C     7.647900    8.182200    2.684500
H     7.963600    8.573800    3.537300
H     6.900700    7.561100    2.874700
C     7.211400    9.274300    1.716000
H     7.373100   10.172800    2.097600
H     6.251300    9.186500    1.491400
C     8.089200    9.034000    0.482100
H     7.565300    9.166000   -0.347400
H     8.856700    9.659200    0.475400

QM/MM links (counting starts at zero)
  1   95
  2   99
  3  103
  4  107
  5   59
  8   84
 13   70
