132
QM: 79 at, MM: 53 at, Links: 0
Fe   13.809200    3.339800    6.705500
N    15.306900    3.985100    5.632800
N    16.679800    3.539600    3.850400
N    11.504900    2.410100    8.384600
N    12.520400    4.369500    5.631400
N    11.176900    6.222000    5.583800
C    16.156200    5.065100    5.481900
C    16.228100    6.281900    6.172500
H    15.668300    6.468800    6.916500
C    17.157000    7.195100    5.713000
H    17.223700    8.038000    6.144500
N    13.977600    1.853800    5.511800
C    18.006900    6.919000    4.628000
H    18.633900    7.576300    4.350300
N    12.402500    2.251200    7.407000
C    17.950600    5.712600    3.959100
H    18.534900    5.524200    3.233700
N    13.562800    4.829300    7.885600
N    15.036100    2.819200    8.131700
N    15.936700    1.835600    8.312500
C    17.002500    4.779800    4.386000
C    15.677600    3.134400    4.622600
C    14.897700    1.903300    4.527400
C    14.976200    0.883300    3.585200
H    15.628300    0.904000    2.894200
C    14.071700   -0.166800    3.683100
H    14.099900   -0.870500    3.046200
C    13.127500   -0.201900    4.700100
H    12.514700   -0.924600    4.764900
C    13.093100    0.842900    5.624600
C    12.186000    1.067000    6.734000
C    11.105300    0.427300    7.311900
H    10.721300   -0.408300    7.074300
C    10.706900    1.308000    8.339700
C     9.554100    1.201100    9.253400
C     8.574900    0.221500    9.054900
H     8.697300   -0.437000    8.380100
C     7.430400    0.201900    9.831200
H     6.763700   -0.454700    9.669800
C     7.246100    1.124300   10.835900
H     6.456700    1.103100   11.364400
C     8.231400    2.098700   11.079300
H     8.117400    2.732600   11.777800
C     9.375400    2.127400   10.285300
H    10.042500    2.784300   10.446300
C    11.820400    4.335600    4.443100
C    11.807000    3.426300    3.381300
H    12.366000    2.658400    3.382500
C    10.946100    3.689400    2.326300
H    10.908700    3.084800    1.594400
C    10.120900    4.842400    2.318100
H     9.539200    4.991300    1.582200
C    10.142800    5.745200    3.346000
H     9.596900    6.522000    3.324800
C    10.990200    5.492400    4.425500
C    12.091200    5.512000    6.252800
C    12.695700    5.806400    7.538900
C    12.515400    6.913700    8.353300
H    11.905400    7.601800    8.116800
C    13.259000    6.984100    9.533400
H    13.172700    7.743000   10.098400
C    14.114400    5.966600    9.888300
H    14.601200    6.005600   10.703300
C    14.253700    4.877500    9.030400
C    15.127700    3.728500    9.151400
C    16.125100    3.327200   10.024300
H    16.418500    3.758700   10.817700
C    16.600400    2.132600    9.462700
C    17.738300    1.323600    9.931800
C    18.567300    1.797800   10.954200
H    18.344600    2.600500   11.409600
C    19.717700    1.096900   11.306400
H    20.281800    1.431700   11.993500
C    20.041800   -0.071700   10.671400
H    20.830200   -0.542900   10.912700
C    19.221600   -0.558900    9.681600
H    19.451400   -1.364600    9.233400
C    18.057900    0.117200    9.332200
H    17.477700   -0.250700    8.676500
N     6.931800    3.776700    6.705500
C     6.090500    3.445800    7.933200
H     6.699900    3.255300    8.690200
H     5.558200    4.245500    8.174300
C     5.146600    2.272000    7.768700
H     4.527600    2.451500    7.030300
H     4.638700    2.141700    8.596400
H     5.663300    1.462500    7.571700
C     6.045000    3.973400    5.485900
H     6.609200    4.277200    4.731600
H     5.654800    3.099500    5.235100
C     4.924900    4.962200    5.674900
H     4.333500    4.653000    6.393100
H     4.414400    5.041200    4.842700
H     5.297700    5.837000    5.914000
C     7.889600    2.625100    6.462100
H     8.292200    2.365200    7.328300
H     7.368100    1.849900    6.133400
C     9.003000    2.894700    5.483200
H     8.625800    3.230600    4.643800
H     9.496200    2.065900    5.312400
H     9.611800    3.565500    5.859100
C     7.703700    5.067700    6.966500
H     8.189500    5.314200    6.139800
H     7.051800    5.789300    7.153800
C     8.695900    5.014300    8.104500
H     8.218100    4.870000    8.948300
H     9.188500    5.860400    8.149300
H     9.324800    4.277700    7.955700
O     9.548500    8.419700    6.191600
H    10.024600    9.041200    6.689200
H    10.071800    7.634200    6.104600
O    10.812100   10.147200    7.896500
H    11.614500   10.317900    7.681700
H    10.868100    9.874900    8.769400
O     7.319400    9.808500    8.135800
H     6.555100   10.032300    8.406500
C     7.233400    8.604700    7.466900
H     7.943300    8.555200    6.792600
H     6.360600    8.534400    7.028900
H     7.339300    7.868000    8.105600
H    15.704200   13.131800    7.504900
O    15.501400   12.264200    7.199000
C    16.457000   11.984100    6.218800
H    16.571300   12.767900    5.641000
H    16.159200   11.222000    5.680400
H    17.311000   11.768000    6.648100
O    13.386900   10.504200    7.041300
H    14.106100   11.099500    7.219400
C    13.927700    9.467200    6.244600
H    14.187100    9.827500    5.371400
H    13.255300    8.764900    6.122100
H    14.715600    9.090600    6.690100

QM/MM links (counting starts at zero)
