85
QM: 61 at, MM: 24 at, Links: 0
Fe    7.706900   13.348700   22.022500
N     8.302400   11.784900   23.060200
N     6.763800   11.952700   20.996600
C     7.856600   10.590400   22.601000
C     9.120000   11.786900   24.127900
H     9.450100   12.617100   24.449200
C     9.499500   10.622900   24.775600
H    10.058200   10.658900   25.542800
C     9.059400    9.420100   24.295400
H     9.322200    8.609900   24.713700
C     8.227800    9.397500   23.195200
H     7.912600    8.571200   22.848300
C     6.935400   10.689100   21.457200
C     5.925300   12.138900   19.958300
H     5.800900   13.018900   19.624800
C     5.238700   11.098100   19.359400
H     4.660300   11.262300   18.623900
C     5.404000    9.821900   19.844100
H     4.930800    9.095800   19.455700
C     6.268000    9.607000   20.902700
H     6.402100    8.731400   21.244700
N     8.763400   14.646300   23.060200
N     9.387300   13.230000   20.996600
C    10.020700   14.857500   22.601000
C     8.352800   15.353400   24.127900
H     7.468700   15.224100   24.449200
C     9.171200   16.264000   24.775600
H     8.860600   16.729900   25.542800
C    10.432800   16.484300   24.295400
H    11.003100   17.117000   24.713700
C    10.868200   15.775400   23.195200
H    11.741400   15.915600   22.848300
C    10.395800   14.010300   21.457200
C     9.645400   12.410600   19.958300
H     8.945300   11.863000   19.624800
C    10.890000   12.336400   19.359400
H    11.037000   11.753500   18.623900
C    11.912500   13.117700   19.844100
H    12.778000   13.071000   19.455700
C    11.666600   13.973400   20.902700
H    12.357900   14.527300   21.244700
N     6.054800   13.614800   23.060200
N     6.969400   14.863300   20.996600
C     5.243300   14.598100   22.601000
C     5.647700   12.905700   24.127900
H     6.201700   12.204700   24.449200
C     4.449900   13.159100   24.775600
H     4.201800   12.657200   25.542800
C     3.628400   14.141600   24.295400
H     2.795300   14.319100   24.713700
C     4.024500   14.873100   23.195200
H     3.466500   15.559200   22.848300
C     5.789300   15.346500   21.457200
C     7.549900   15.496500   19.958300
H     8.374300   15.164100   19.624800
C     6.991900   16.611500   19.359400
H     7.423200   17.030200   18.623900
C     5.804000   17.106300   19.844100
H     5.411800   17.879200   19.455700
C     5.185900   16.465600   20.902700
H     4.360500   16.787300   21.244700
C     7.707600    4.449100   26.029300
C     8.684100    5.443600   25.955700
N     9.493300    6.263200   25.895700
C     6.357400    4.798800   25.955700
N     5.243000    5.089800   25.895700
C     8.079100    3.106200   25.955700
N     8.384300    1.995600   25.895700
C     7.707600    4.449100   22.725600
C     7.007100    5.662500   22.725600
N     6.434400    6.654300   22.725600
C     7.006300    3.237000   22.725600
N     6.433700    2.245200   22.725600
C     9.107200    4.449100   22.725600
N    10.252400    4.449100   22.725600
C     7.706900   13.348700   27.271800
C     6.999400   12.123200   27.271800
N     6.425200   11.128800   27.271800
C     9.121800   13.348700   27.271800
N    10.270100   13.348700   27.271800
C     6.999400   14.574100   27.271800
N     6.425200   15.568500   27.271800
O    10.461300    8.577800   27.271800
H    10.211600    7.675500   26.843600
H    11.367600    8.342900   27.700000

QM/MM links (counting starts at zero)
