76
QM: 55 at, MM: 21 at, Links: 2
Fe    7.274600   11.322500   12.448700
N     7.799400    9.840800   11.264600
N     9.025300   11.013100   13.069400
N     7.355000   12.748300   13.916900
N     7.834800   12.681800   11.118200
N     5.639400   11.611600   11.563000
N     6.082500   10.086700   13.569100
N     7.184600   14.044300    9.417700
N     9.400200    8.308100   10.737400
C     9.054300    9.342800   11.520900
C     8.636400   12.834900   14.444100
C     4.796000   10.069700   13.062100
C     2.463000    9.372200   12.899200
H     1.743400    8.851000   13.237800
C     9.801700   10.057300   12.536800
C     5.564900   12.439000   10.488500
C     6.837400   13.068400   10.290800
C     9.550400   11.863700   13.968200
C     6.453600   13.614400   14.391000
C     3.258400   11.801800   10.151700
H     2.452900   11.869800    9.652000
C     3.739400    9.322700   13.567300
C     8.327100    8.161200    9.930200
H     8.260200    7.503900    9.247400
C     8.912900   13.416400   10.759400
H     9.782700   13.373100   11.140100
C    10.869700   11.809500   14.391000
C     3.320200   10.937300   11.273700
C     4.573900   10.878500   11.918100
C     9.060600   13.776800   15.390400
C     8.501300   14.245400    9.728800
H     9.063100   14.874800    9.293200
C     2.258500   10.143900   11.799100
H     1.406400   10.154700   11.379900
C    11.286300   12.805500   15.322700
H    12.189000   12.811700   15.617400
C     6.300900    9.327300   14.660100
C    11.680200   10.764100   13.865700
H    12.580300   10.663500   14.153000
C     7.338600    9.084500   10.219400
H     6.502900    9.175700    9.778300
C    10.432900   13.738100   15.798600
H    10.751000   14.384600   16.419100
C     4.349100   12.538000    9.781900
H     4.286000   13.125700    9.038800
C     4.003200    8.535500   14.718600
H     3.327800    8.001900   15.121300
C     8.075900   14.670700   15.851700
H     8.290500   15.331000   16.499700
C     5.280800    8.578800   15.227500
H     5.474000    8.071500   16.007300
C     6.812200   14.576300   15.357500
H     6.149400   15.179500   15.674100
C    11.146200    9.893300   12.930300
H    11.676400    9.197400   12.560500
C     7.660500    9.327300   15.267800
H     8.317000    9.042700   14.597800
H     7.678200    8.708700   16.027400
H     7.879000   10.230500   15.577100
C     5.051100   13.575700   13.874800
H     5.051100   13.770600   12.915700
H     4.513300   14.246900   14.345200
H     4.671100   12.686400   14.028600
Cl    6.215000   10.392900    7.048300
Cl    6.254200    7.507000    6.934800
Cl    7.818400    9.055100    5.066100
C     7.197200    8.977800    6.694000
H     7.971100    8.963900    7.327300
Cl    9.685500   10.974400   18.008700
Cl    8.645300   11.688900   20.601300
Cl    7.072200   12.149800   18.245200
C     8.253900   11.082600   19.001900
H     7.853700   10.171700   19.091600
O     5.636800   16.033200    7.988100
H     4.863000   15.683700    7.935000
H     6.087500   15.481100    8.451200

QM/MM links (counting starts at zero)
 18   59
 36   55
