152
QM: 39 at, MM: 113 at, Links: 6
C     7.924700   -2.753500    1.065400
H     8.602200   -3.474200    1.002400
H     7.527600   -2.781500    1.971400
C     6.858400   -2.979900    0.045300
C     6.308500   -4.104500   -0.514200
H     6.578300   -5.006400   -0.390900
C     9.006200   -0.866600    2.156300
H     9.672000   -0.148300    2.015500
H     9.420900   -1.572000    2.713800
C     7.789400   -0.314900    2.841200
C     7.534200    0.148600    4.105600
H     8.118000    0.145300    4.855600
N     8.579600   -1.433300    0.848400
N     6.159700   -1.914000   -0.415100
N     5.208100   -2.311300   -1.236100
N     5.296800   -3.640800   -1.278800
N     6.664800   -0.117400    2.105000
N     5.732200    0.449000    2.840200
N     6.265100    0.612300    4.046800
Fe    7.002200    0.000000    0.000000
C     6.079600    2.753500   -1.065400
H     5.402100    3.474200   -1.002400
H     6.476700    2.781500   -1.971400
C     7.145900    2.979900   -0.045300
C     7.695800    4.104500    0.514200
H     7.426000    5.006400    0.390900
C     4.998100    0.866600   -2.156300
H     4.332300    0.148300   -2.015500
H     4.583400    1.572000   -2.713800
C     6.214900    0.314900   -2.841200
C     6.470100   -0.148600   -4.105600
H     5.886300   -0.145300   -4.855600
N     5.424700    1.433300   -0.848400
N     7.844600    1.914000    0.415100
N     8.796200    2.311300    1.236100
N     8.707500    3.640800    1.278800
N     7.339500    0.117400   -2.105000
N     8.272100   -0.449000   -2.840200
N     7.739200   -0.612300   -4.046800
C    14.267600    0.424800    2.204200
H    14.053500   -0.431200    1.934900
H    14.790800    0.902200    1.551600
H    14.834600    0.443500    2.981500
C    13.052200    1.160000    2.501400
N    12.109000    1.735300    2.749500
C     4.344600   -4.380600   -2.122200
H     4.213400   -5.287800   -1.749300
H     3.469800   -3.916200   -2.114400
C     4.837700   -4.491000   -3.542500
C     5.409100   -5.665800   -4.002200
H     5.500300   -6.410200   -3.418100
C     5.847200   -5.755000   -5.313700
H     6.239800   -6.560100   -5.628300
C     5.713900   -4.675700   -6.163200
H     5.997500   -4.748000   -7.067300
C     5.170600   -3.492700   -5.705600
H     5.099400   -2.744800   -6.287000
C     4.728800   -3.399800   -4.395900
H     4.349700   -2.587300   -4.079800
C     5.476800    1.329000    5.070500
H     6.081900    1.735600    5.740900
H     4.873000    0.697300    5.537000
C     4.671600    2.401700    4.386000
C     3.292500    2.288700    4.282700
H     2.843100    1.559700    4.694300
C     2.567400    3.242600    3.575500
H     1.622100    3.171500    3.516900
C     3.218300    4.290900    2.959400
H     2.721400    4.933000    2.467300
C     4.595800    4.409900    3.056900
H     5.041800    5.131800    2.631600
C     5.321100    3.474100    3.776900
H     6.263500    3.562900    3.856200
C     9.727100   -1.553300   -0.094000
H    10.054000   -0.643800   -0.304200
H     9.398100   -1.952700   -0.938600
C    10.878700   -2.366400    0.391500
C    11.089100   -3.722000    0.358200
H    10.504200   -4.391700    0.025900
C    13.096700   -5.124000    0.940500
H    12.552600   -5.853600    1.331000
H    13.891000   -4.989600    1.516600
C    13.539200   -5.510100   -0.453300
C    14.326200   -4.644000   -1.209800
H    14.604800   -3.815200   -0.839700
C    14.707300   -4.984000   -2.500600
H    15.230600   -4.382500   -3.016500
C    14.322500   -6.205400   -3.035900
H    14.593200   -6.446900   -3.914000
C    13.546100   -7.070000   -2.289700
H    13.285500   -7.907200   -2.656000
C    13.141900   -6.721400   -1.002900
H    12.594100   -7.312400   -0.500500
N    11.975800   -1.780500    0.947400
N    12.849800   -2.713300    1.247700
N    12.306000   -3.890800    0.900100
C     9.659700    4.380600    2.122200
H     9.790900    5.287800    1.749300
H    10.534500    3.916200    2.114400
C     9.166600    4.491000    3.542500
C     8.595200    5.665800    4.002200
H     8.504000    6.410200    3.418100
C     8.157100    5.755000    5.313700
H     7.764500    6.560100    5.628300
C     8.290400    4.675700    6.163200
H     8.006800    4.748000    7.067300
C     8.833700    3.492700    5.705600
H     8.904900    2.744800    6.287000
C     9.275500    3.399800    4.395900
H     9.654600    2.587300    4.079800
C     8.527500   -1.329000   -5.070500
H     7.922400   -1.735600   -5.740900
H     9.131300   -0.697300   -5.537000
C     9.332700   -2.401700   -4.386000
C    10.711800   -2.288700   -4.282700
H    11.161200   -1.559700   -4.694300
C    11.436900   -3.242600   -3.575500
H    12.382200   -3.171500   -3.516900
C    10.786000   -4.290900   -2.959400
H    11.282900   -4.933000   -2.467300
C     9.408500   -4.409900   -3.056900
H     8.962500   -5.131800   -2.631600
C     8.683200   -3.474100   -3.776900
H     7.740800   -3.562900   -3.856200
C     4.277200    1.553300    0.094000
H     3.950300    0.643800    0.304200
H     4.606200    1.952700    0.938600
C     3.125600    2.366400   -0.391500
C     2.915200    3.722000   -0.358200
H     3.500100    4.391700   -0.025900
C     0.907600    5.124000   -0.940500
H     1.451700    5.853600   -1.331000
H     0.113300    4.989600   -1.516600
C     0.465100    5.510100    0.453300
C    -0.321900    4.644000    1.209800
H    -0.600500    3.815200    0.839700
C    -0.703000    4.984000    2.500600
H    -1.226300    4.382500    3.016500
C    -0.318200    6.205400    3.035900
H    -0.588900    6.446900    3.914000
C     0.458200    7.070000    2.289700
H     0.718800    7.907200    2.656000
C     0.862400    6.721400    1.002900
H     1.410200    7.312400    0.500500
N     2.028500    1.780500   -0.947400
N     1.154500    2.713300   -1.247700
N     1.698300    3.890800   -0.900100
B     9.574200   -7.429800    0.414500
F     8.418600   -8.017600    0.917100
F    10.290100   -8.391200   -0.304200
F    10.356400   -6.965900    1.463700
F     9.242600   -6.383300   -0.426500

QM/MM links (counting starts at zero)
 12   73
 15   45
 18   59
 32  124
 35   96
 38  110
