146
QM: 71 at, MM: 75 at, Links: 4
Fe    4.349700    3.314100    3.890000
N     4.390300    1.970500    5.244200
C     5.145600    0.859100    5.063500
C     5.182600   -0.144300    6.025200
H     5.708700   -0.924500    5.891600
C     4.434800    0.017900    7.184100
H     4.449000   -0.656300    7.854300
C     3.666600    1.159000    7.369600
H     3.154500    1.274800    8.160200
C     3.662400    2.128600    6.375200
C     5.792800    0.938200    3.756500
N     5.558600    2.029900    3.017200
C     6.224500    1.833700    1.811600
C     6.355200    2.654600    0.686200
H     5.942500    3.509600    0.649800
C     7.105500    2.175300   -0.368200
H     7.214500    2.715200   -1.142600
C     7.714900    0.903000   -0.323900
H     8.216500    0.601800   -1.073100
C     7.598300    0.087500    0.783600
H     8.007700   -0.768300    0.816800
C     6.852500    0.579800    1.848800
N     6.568200    0.036500    3.100200
C     2.970000    3.415700    6.314700
N     3.135500    4.148900    5.205800
C     2.424900    5.326200    5.413400
C     2.231900    6.445500    4.590500
H     2.606700    6.488100    3.718800
C     1.477200    7.480900    5.096900
H     1.320500    8.245700    4.555500
C     0.930700    7.439600    6.395100
H     0.432600    8.182900    6.713400
C     1.104300    6.337700    7.215400
H     0.735600    6.302600    8.090800
C     1.848100    5.282300    6.689400
N     2.196100    4.047500    7.241700
N     4.290900    4.675800    2.565000
C     5.205300    5.683700    2.597500
C     5.095600    6.773600    1.745600
H     5.719900    7.488700    1.787500
C     4.050900    6.795100    0.828900
H     3.954800    7.538300    0.244700
C     3.147500    5.745600    0.756300
H     2.450700    5.746700    0.110800
C     3.287800    4.688700    1.653900
C     6.156500    5.419100    3.680600
N     5.865900    4.409600    4.500800
C     6.857100    4.392500    5.478000
C     7.052000    3.538100    6.572500
H     6.435200    2.844100    6.772900
C     8.178500    3.747000    7.347500
H     8.332900    3.191900    8.102300
C     9.101200    4.764600    7.041600
H     9.870700    4.868700    7.588100
C     8.922000    5.620200    5.967100
H     9.547500    6.306300    5.764200
C     7.776400    5.422000    5.199500
N     7.314200    6.059700    4.043900
C     2.475100    3.483400    1.841000
N     2.843600    2.655600    2.820400
C     1.966500    1.579900    2.781200
C     1.910000    0.407300    3.538200
H     2.536500    0.235500    4.231400
C     0.904000   -0.494000    3.235300
H     0.850900   -1.308300    3.720500
C    -0.039300   -0.234000    2.228500
H    -0.725900   -0.869600    2.066900
C    -0.001500    0.919400    1.462100
H    -0.641400    1.094100    0.782100
C     1.034300    1.806100    1.752100
N     1.384400    3.023900    1.158300
C     7.139700   -1.184000    3.625200
C     8.159000   -1.099300    4.561900
H     8.473500   -0.252900    4.856400
C     8.710600   -2.267200    5.063600
H     9.401400   -2.225900    5.714600
C     8.253500   -3.495600    4.613900
H     8.633600   -4.295000    4.959000
C     7.247500   -3.567700    3.665600
H     6.942500   -4.414500    3.360000
C     6.681400   -2.399700    3.159200
H     5.993600   -2.439200    2.505100
C     1.760100    3.549900    8.520200
C     0.706000    2.644500    8.569000
H     0.265600    2.375100    7.771600
C     0.306300    2.139100    9.795900
H    -0.409800    1.516000    9.841900
C     0.947300    2.538700   10.953500
H     0.676300    2.184100   11.791400
C     1.982700    3.452600   10.895800
H     2.414500    3.730800   11.695500
C     2.391600    3.966300    9.672000
H     3.099800    4.598400    9.630200
C     8.108900    6.980000    3.267900
C     8.367600    6.690800    1.931500
H     7.994000    5.919000    1.522900
C     9.183300    7.551300    1.203300
H     9.350100    7.378700    0.284400
C     9.752000    8.656000    1.811100
H    10.316700    9.235300    1.311300
C     9.500100    8.918300    3.146000
H     9.901000    9.671900    3.561700
C     8.664100    8.089200    3.885000
H     8.477300    8.279600    4.796900
C     0.645600    3.605200    0.055900
C     1.170700    3.572000   -1.225100
H     2.047300    3.240900   -1.380700
C     0.388100    4.033200   -2.283500
H     0.730700    4.018100   -3.169800
C    -0.886900    4.511700   -2.042400
H    -1.416500    4.821500   -2.768000
C    -1.395400    4.544500   -0.765600
H    -2.272000    4.877300   -0.610200
C    -0.624800    4.088800    0.300100
H    -0.968400    4.109700    1.185600
B     4.306700   10.243000    2.055700
F     5.605400    9.807100    2.316100
F     4.067700   10.181000    0.686500
F     4.155900   11.554200    2.495000
F     3.387500    9.434700    2.716100
B    -0.721500   11.142900    6.911800
F     0.424200   10.645800    7.502400
F    -0.412800   12.236600    6.110000
F    -1.320000   10.149300    6.148000
F    -1.624800   11.547700    7.881400
C     4.319300    0.312600   11.226000
H     4.053600    0.904100   11.961700
H     4.263600    0.800300   10.377600
H     5.239200    0.006900   11.368100
N     3.420500   -0.847700   11.183000
O     3.566900   -1.735500   12.017400
O     2.552200   -0.857300   10.315300
C    -0.002900   -1.503700    8.376000
H    -0.187100   -2.465100    8.332200
H    -0.847300   -1.006600    8.358600
H     0.479100   -1.300000    9.205200
N     0.824000   -1.109500    7.218200
O     1.863500   -1.719500    7.014800
O     0.444800   -0.174400    6.528200
C    -0.779000    2.209400    4.936600
H    -1.472100    2.136100    5.625300
H     0.062400    2.497700    5.349200
H    -0.650800    1.337600    4.507500
N    -1.196300    3.203600    3.920700
O    -0.415200    4.107400    3.654300
O    -2.287100    3.057900    3.393700

QM/MM links (counting starts at zero)
 22   71
 35   82
 57   93
 70  104
