75
QM: 59 at, MM: 16 at, Links: 0
C     5.491600   11.490200   -0.106900
H     5.370300   10.781800    0.513600
C     6.436400   11.457800   -1.073700
H     7.034900   10.733800   -1.218100
C     5.124600   13.494600   -1.030400
C     3.769000   15.307300   -0.572800
C     3.418800   16.732100   -0.686900
C     3.916100   17.740400   -1.500300
H     4.605900   17.576100   -2.133100
C     3.352400   19.004800   -1.343100
H     3.666600   19.720700   -1.882400
C     2.340000   19.247500   -0.415400
H     1.972100   20.119900   -0.343500
C     1.857900   18.233700    0.408000
H     1.177700   18.397800    1.049900
C     2.418800   16.970200    0.247700
C     2.134800   15.693600    0.905800
C     0.814600   14.328400    2.220700
C    -0.503500   12.556100    3.227500
H    -1.116000   11.985600    3.677200
C     0.560400   12.129700    2.509900
H     0.763700   11.208900    2.399500
C     1.558300   13.158300   -1.652000
H     1.487100   14.094600   -1.503800
C     1.142000   12.575300   -2.797400
H     0.775400   13.037800   -3.542300
C     2.044200   11.037700   -1.130200
C     2.759300    9.922100    0.761200
C     2.868900    8.713600    1.590100
C     2.691300    7.373300    1.280400
H     2.469400    7.094500    0.399600
C     2.851800    6.452800    2.313400
H     2.732400    5.527100    2.138300
C     3.187100    6.873400    3.607100
H     3.303400    6.224900    4.290700
C     3.354800    8.222400    3.912800
H     3.572800    8.507200    4.792000
C     3.190300    9.130300    2.878500
C     3.354800   10.588200    2.823800
C     4.085200   12.596200    3.673200
C     5.092000   14.784900    4.054600
H     5.509800   15.581600    4.359000
C     4.618200   14.590500    2.805800
H     4.692100   15.250500    2.126100
Fe    3.036700   12.862200    0.948600
N     1.334200   13.135000    1.944500
N     1.174800   15.562300    1.766200
N     2.974200   14.708100    0.394500
N     4.716600   14.767100   -1.282800
N     4.712300   12.639800   -0.091700
N     2.097700   12.296200   -0.703900
N     2.350500    9.882800   -0.471700
N     3.085000   11.031500    1.530700
N     3.740500   11.289200    3.839900
N     4.015300   13.361800    2.584600
S     1.371400   10.880100   -2.712400
S    -0.592100   14.264400    3.213500
S     6.409900   12.892200   -2.000000
S     4.833000   13.393100    5.010400
C     0.515500    0.610900    6.335400
H     1.429000    0.258400    6.371200
H    -0.117000   -0.130000    6.227500
H     0.318300    1.090900    7.166900
O     0.394700    1.496300    5.239300
H     1.148300    1.609200    4.886600
C     4.962500    0.817300    7.227900
H     5.542300    0.060300    7.456100
H     4.160500    0.489000    6.770800
H     4.701600    1.288900    8.046800
O     5.658600    1.701600    6.379200
H     5.116000    2.075000    5.859400
N     3.269500    3.015600    4.231100
O     3.155100    1.928700    4.859500
O     2.341100    3.406600    3.500900
O     4.308200    3.688500    4.377400

QM/MM links (counting starts at zero)
