83
QM: 67 at, MM: 16 at, Links: 0
Fe    1.272100    5.494600    3.132100
N    -0.398800    4.504500    3.479700
N     1.774200    3.825800    2.184500
N     2.145600    4.822100    4.755300
N     3.034900    6.308800    2.798900
N     0.479700    6.375400    1.540400
N     0.665300    7.154500    4.033300
C    -1.493300    4.899500    4.110100
H    -1.510700    5.747300    4.490600
C    -2.635100    4.075800    4.227000
H    -3.398900    4.397900    4.648700
C    -2.619500    2.786100    3.711200
H    -3.360500    2.228700    3.783400
C    -1.463100    2.362700    3.087700
C    -1.308700    1.044600    2.480200
H    -2.009500    0.434500    2.522700
C    -0.170700    0.698000    1.865900
H    -0.093700   -0.163800    1.526700
C     0.932600    1.595500    1.707700
C     2.128200    1.311300    1.060200
H     2.257100    0.481400    0.659000
C     3.101300    2.247100    1.016600
H     3.910200    2.048300    0.602900
C     2.912600    3.497000    1.580500
H     3.598300    4.123200    1.534700
C     0.777200    2.876600    2.278500
C    -0.388200    3.234100    2.930700
C     1.667800    4.022400    5.745600
H     0.804400    3.680800    5.678000
C     2.443000    3.700700    6.864200
H     2.067700    3.214200    7.563400
C     3.745400    4.093300    6.937600
H     4.263600    3.845900    7.668800
C     4.300200    4.855100    5.934700
C     5.637400    5.271700    5.891200
H     6.213800    5.017100    6.576600
C     6.120600    6.042500    4.865400
H     7.010300    6.314200    4.875700
C     5.278100    6.435800    3.778800
C     5.695500    7.216700    2.695700
H     6.573900    7.517100    2.643000
C     4.798400    7.528600    1.720400
H     5.060100    8.058700    1.004000
C     3.469400    7.048700    1.790300
H     2.878700    7.262100    1.103700
C     3.948900    5.999300    3.776500
C     3.462600    5.181300    4.853900
C     0.374100    5.939200    0.312900
H     0.678400    5.084300    0.114600
C    -0.185200    6.718300   -0.722100
H    -0.274300    6.363000   -1.577100
C    -0.595800    7.992700   -0.463000
H    -0.933400    8.527000   -1.145000
C    -0.497200    8.486600    0.853900
C    -0.871400    9.807500    1.239000
H    -1.191300   10.402700    0.598300
C    -0.763300   10.198400    2.508900
H    -1.032500   11.060500    2.734700
C    -0.257300    9.352800    3.532400
C    -0.196100    9.661600    4.886000
H    -0.483300   10.495000    5.182800
C     0.276000    8.761300    5.772000
H     0.324400    8.973200    6.676300
C     0.702600    7.479800    5.306600
H     1.014400    6.856400    5.923300
C     0.179300    8.083400    3.166800
C     0.053000    7.634400    1.812000
As    9.073500   10.142200    3.847400
Se    6.860900   10.332800    4.803900
Se    9.551300    7.835500    4.361100
Se    8.307900    9.812300    1.735100
As    7.818400    8.165200    7.614000
Se   10.030900    7.974600    6.657500
Se    7.340600   10.471900    7.100300
Se    8.583900    8.495100    9.726300
As    1.955600   10.907300   -0.958200
Se    3.496400   12.584200   -2.088300
Se    3.138800   10.797500    1.093400
Se    2.818600    8.964700   -1.796600
As    4.018500   14.481100    0.958200
Se    2.477800   12.804200    2.088300
Se    2.835400   14.590900   -1.093400
Se    3.155500   16.423600    1.796600

QM/MM links (counting starts at zero)
