98
QM: 28 at, MM: 70 at, Links: 9
Fe    3.815200    0.005400    4.459000
P     4.747800    0.767800    6.398800
P     3.017300   -0.796000    2.479500
N     4.561100    2.674700    3.005900
N     3.777400    1.846100    3.742500
N     3.647800   -2.866200    5.688500
N     3.181500   -1.637200    5.367400
N     2.065500    0.556300    5.002600
N     5.546400   -0.585300    3.884000
C     3.924200    3.849400    2.737100
C     2.685900    3.779400    3.324400
C     2.631500    2.528200    3.943000
C     1.630000    1.803400    4.706800
C     0.371800    2.241200    5.090300
C    -0.456300    1.353200    5.768100
C    -0.027900    0.056500    6.028900
C     1.248100   -0.316500    5.643200
C     1.915000   -1.594700    5.829500
C     1.577000   -2.814100    6.428200
C     2.704500   -3.609200    6.330600
C     6.552700   -1.017900    3.565000
H     5.421600    2.468400    2.721200
H     4.506600   -3.167900    5.499400
H     2.020900    4.428900    3.304100
H     0.089200    3.105200    4.893900
H    -1.298400    1.627700    6.053000
H    -0.589100   -0.553500    6.452600
H     0.765000   -3.045100    6.817600
C     4.557100    4.949500    1.911000
C     5.761100    5.522600    2.661800
C     3.528500    6.060100    1.684600
C     4.988100    4.365500    0.554400
C     2.981100   -4.983400    6.900300
C     4.037000   -5.720100    6.077700
C     3.481100   -4.808400    8.342900
C     1.696600   -5.795100    6.902200
C     6.542100    1.009300    6.388600
C     4.125600    2.380300    6.961700
C     4.497500   -0.284600    7.854500
C     3.484400    0.185200    1.028400
C     1.217800   -0.956900    2.331100
C     3.597700   -2.463100    2.070900
C     7.825900   -1.614700    3.168500
H     6.372300    4.812400    2.871700
H     6.205800    6.173500    2.114000
H     5.462900    5.938800    3.473700
H     3.273300    6.432200    2.532600
H     3.908800    6.749600    1.134800
H     2.754600    5.694000    1.250700
H     5.675400    3.710700    0.697200
H     4.236700    3.952200    0.124600
H     5.328100    5.069900   -0.003500
H     4.853700   -5.214300    6.078900
H     4.196300   -6.585600    6.461200
H     3.726700   -5.823300    5.175900
H     4.265000   -4.259200    8.405700
H     2.908800   -4.318400    8.938500
H     3.572900   -5.730200    8.592500
H     1.454700   -6.039600    6.006300
H     0.994200   -5.267600    7.289900
H     1.826700   -6.588400    7.426500
H     6.784500    1.585900    5.660300
H     6.818600    1.407000    7.217200
H     6.973700    0.159200    6.281300
H     4.574400    2.628500    7.774300
H     4.296500    3.042000    6.288300
H     3.181300    2.324300    7.122100
H     3.559600   -0.355200    8.044100
H     4.855600   -1.158600    7.682600
H     4.947900    0.101900    8.609800
H     3.198400   -0.265000    0.230100
H     3.070000    1.049700    1.074300
H     4.439000    0.288200    1.012000
H     0.807800   -0.093400    2.420200
H     0.994200   -1.328600    1.475600
H     0.895700   -1.536500    3.025600
H     3.241800   -2.727200    1.219600
H     4.556700   -2.470600    2.032700
H     3.299500   -3.077800    2.745400
H     8.402100   -1.657900    3.935600
H     7.676100   -2.501800    2.830100
H     8.239400   -1.079800    2.487600
S     8.298100    2.188200    2.549400
F    10.285400    3.858600    2.197700
F     9.567600    2.981900    0.385800
F     8.437500    4.517500    1.316300
O     7.089200    1.957700    1.783400
O     8.060800    2.853000    3.803100
O     9.227500    1.098800    2.573800
C     9.183000    3.445200    1.571800
S     7.369400   -3.274200    6.666800
F     9.152300   -5.052000    7.379800
F     7.552700   -5.849300    6.181900
F     9.094100   -4.660400    5.269000
O     6.467200   -3.234700    5.524800
O     8.379500   -2.246600    6.659300
O     6.727900   -3.529100    7.925300
C     8.336000   -4.784200    6.355400

QM/MM links (counting starts at zero)
  1   36
  1   37
  1   38
  2   39
  2   40
  2   41
  9   28
 19   32
 20   42
