104
QM: 17 at, MM: 87 at, Links: 13
Fe    1.540000    9.994900   13.214900
H     0.225800    9.609700   13.618000
P     1.835200    8.335100   14.644500
P     0.094700   11.107300   11.973900
P     3.497900   10.346200   12.211600
P     1.562100   11.543000   14.875900
Si    1.033100    8.294700   11.798300
N     0.471200    6.899200   12.742000
N    -0.600400    8.556500   11.140900
C     1.268500    6.667400   13.923100
H     2.058100    6.117200   13.691400
H     0.734700    6.175500   14.596200
C    -0.928300    6.868500   12.762700
C    -1.529800    7.793800   11.872000
C    -0.849800    9.941600   10.794800
H    -1.820500   10.127700   10.852600
H    -0.560000   10.107400    9.862800
C     0.753800    8.327800   16.148000
C     1.252500    8.330200   17.447900
H     2.190300    8.373200   17.593100
C     0.386800    8.269900   18.535700
H     0.738900    8.282100   19.418000
C    -0.974400    8.192700   18.346500
H    -1.561000    8.135100   19.092000
C    -1.479100    8.199700   17.060100
H    -2.417800    8.157500   16.919900
C    -0.622900    8.268300   15.974600
H    -0.983300    8.274600   15.095800
C     3.434000    7.790800   15.402700
C     4.542400    8.619600   15.416500
H     4.467800    9.505700   15.082400
C     5.760600    8.176000   15.910600
H     6.512100    8.757200   15.907300
C     5.884800    6.902400   16.403800
H     6.725000    6.596100   16.724500
C     4.786700    6.066000   16.433500
H     4.866300    5.187600   16.786800
C     3.569500    6.510700   15.947100
H     2.813700    5.936400   15.983900
C    -1.732800    6.039900   13.536200
H    -1.337200    5.420200   14.137700
C    -3.113400    6.118300   13.429200
H    -3.658700    5.554100   13.964700
C    -3.701900    7.002700   12.557700
H    -4.648100    7.042300   12.490600
C    -2.910200    7.845300   11.768200
H    -3.319300    8.451600   11.162000
C     1.960300    7.460300   10.362400
C     2.822200    6.383600   10.546700
H     3.032800    6.109500   11.431700
C     3.386800    5.694700    9.475800
H     3.990600    4.978000    9.632500
C     3.063700    6.060100    8.188600
H     3.442200    5.589700    7.455200
C     2.206100    7.090400    7.960600
H     1.975500    7.329100    7.070600
C     1.665500    7.796300    9.035600
H     1.081200    8.525200    8.862700
C     0.473500   12.495200   10.797700
C    -0.341800   12.770800    9.705200
H    -1.144900   12.278500    9.583000
C     0.003400   13.755700    8.792400
H    -0.561100   13.925900    8.047500
C     1.150400   14.484900    8.954400
H     1.393400   15.141600    8.312500
C     1.949300   14.261000   10.054400
H     2.730000   14.785700   10.190200
C     1.612300   13.265000   10.965800
H     2.173300   13.110100   11.716600
C    -1.355200   11.858700   12.831600
C    -1.554700   13.232600   12.925100
H    -0.923600   13.824200   12.532400
C    -2.663000   13.754200   13.584200
H    -2.776700   14.695200   13.649700
C    -3.596100   12.909800   14.141400
H    -4.354600   13.262700   14.591500
C    -3.418500   11.544600   14.040200
H    -4.066900   10.958400   14.412200
C    -2.312800   11.021700   13.406000
H    -2.200900   10.079400   13.359400
C     4.616100   11.696200   12.784800
H     4.183700   12.563300   12.637500
H     5.456200   11.660500   12.281300
H     4.802800   11.582400   13.740100
C     4.724800    8.984200   12.161100
H     5.004000    8.762100   13.073900
H     5.505300    9.266800   11.640400
H     4.320600    8.195800   11.742300
C     3.519200   10.681000   10.404300
H     3.128400    9.919700    9.926400
H     4.443800   10.813100   10.107300
H     2.996900   11.488300   10.215300
C     2.824500   11.473500   16.207500
H     2.803000   10.590600   16.632200
H     2.631300   12.162700   16.877000
H     3.712600   11.630200   15.824200
C     1.754600   13.319800   14.490900
H     2.641800   13.476000   14.104700
H     1.659600   13.844300   15.313300
H     1.066300   13.591400   13.848700
C     0.071900   11.665100   15.938800
H    -0.711400   11.858100   15.382500
H     0.194500   12.385800   16.591600
H    -0.063300   10.816800   16.410500

QM/MM links (counting starts at zero)
  2   17
  2   28
  3   58
  3   69
  4   80
  4   84
  4   88
  5   92
  5   96
  5  100
  6   47
 12   39
 13   45
