145
QM: 49 at, MM: 96 at, Links: 2
Se    7.977200   -3.201100   12.104700
Fe   10.714200    0.829900   13.260300
N     9.356700   -0.689200   12.776900
C     8.817300   -1.678200   12.532800
N    11.422600    0.977300   11.253000
C     7.989100    2.152400   13.015800
H     7.797800    1.482900   13.661600
N     9.256600    2.275700   12.576600
C     6.961800    2.948600   12.573900
H     6.083500    2.838500   12.919100
N    10.836700    3.265200   11.157000
C     7.224600    3.909700   11.624200
H     6.531300    4.476800   11.308400
C     8.508100    4.038300   11.139000
H     8.710600    4.682500   10.470300
C     9.500500    3.207700   11.645000
C    11.403900    2.110500   10.545300
C    11.883300    2.183000    9.241400
H    11.837000    2.998300    8.757100
C    12.424100    1.060700    8.662500
H    12.777700    1.093700    7.781100
C    12.443400   -0.118400    9.386200
H    12.812000   -0.910200    9.011700
C    11.921000   -0.124600   10.654200
H    11.909800   -0.944200   11.135100
Se   13.451100   -3.201100   14.415900
N    12.071600   -0.689200   13.743700
C    12.611000   -1.678200   13.987800
N    10.005700    0.977300   15.267600
C    13.439200    2.152400   13.504800
H    13.630500    1.482900   12.859000
N    12.171700    2.275700   13.944000
C    14.466500    2.948600   13.946700
H    15.344800    2.838500   13.601500
N    10.591600    3.265200   15.363600
C    14.203700    3.909700   14.896400
H    14.897000    4.476800   15.212200
C    12.920200    4.038300   15.381600
H    12.717700    4.682500   16.050300
C    11.927800    3.207700   14.875600
C    10.024400    2.110500   15.975300
C     9.545000    2.183000   17.279200
H     9.591300    2.998300   17.763500
C     9.004200    1.060700   17.858100
H     8.650600    1.093700   18.739500
C     8.984900   -0.118400   17.134400
H     8.616300   -0.910200   17.508900
C     9.507300   -0.124600   15.866400
H     9.518500   -0.944200   15.385500
N    12.866400    4.310400   10.954200
N    10.895200    5.578900   11.351200
N    13.017000    6.686600   11.177200
N    14.884300    5.377000   10.788800
N    11.063000    7.864200   11.525000
C    11.568100    4.462900   11.149800
C    11.680100    6.683800   11.346600
C    13.549300    5.473400   10.979400
C    15.742700    6.547200   10.669400
H    15.177700    7.350800   10.546400
H    16.309100    6.449500    9.862100
C    16.640100    6.755900   11.880900
H    17.168400    5.931600   12.033300
H    17.275500    7.488400   11.686700
C    15.881800    7.088900   13.139400
H    15.220500    6.388900   13.316900
H    15.426200    7.948700   13.026900
H    16.506200    7.146600   13.891500
C    15.483200    4.071300   10.506200
H    15.036200    3.386100   11.062600
H    16.439800    4.093500   10.763800
C    15.376100    3.664000    9.041200
H    14.436200    3.750100    8.743000
H    15.929800    4.271100    8.488400
C    15.841100    2.231100    8.838600
H    15.691900    1.968300    7.906700
H    15.334100    1.636800    9.430700
H    16.795500    2.165100    9.048800
C     9.599700    7.934800   11.598900
H     9.344900    8.715300   12.151700
H     9.261300    7.121400   12.051000
C     8.933500    8.055300   10.240100
H     9.186300    8.918100    9.825000
H     9.252700    7.327100    9.651700
C     7.422300    7.978300   10.364600
H     7.169900    7.109600   10.740800
H     7.015600    8.081900    9.478500
H     7.105600    8.694600   10.954800
C    11.809400    9.116100   11.525700
H    12.642700    8.983200   12.043900
H    11.271300    9.801600   11.996200
C    12.178600    9.654800   10.152400
H    12.872000    9.077900    9.743700
H    11.382700    9.641700    9.565100
C    12.700300   11.071400   10.270500
H    13.058400   11.359900    9.404200
H    13.409800   11.102400   10.944200
H    11.969800   11.667800   10.535800
N     8.561900    4.310400   15.566400
N    10.533100    5.578900   15.169400
N     8.411300    6.686600   15.343400
N     6.544000    5.377000   15.731800
N    10.365300    7.864200   14.995600
C     9.860200    4.462900   15.370800
C     9.748200    6.683800   15.174000
C     7.879000    5.473400   15.541200
C     5.685600    6.547200   15.851200
H     6.250600    7.350800   15.974200
H     5.119200    6.449500   16.658500
C     4.788200    6.755900   14.639700
H     4.259900    5.931600   14.487300
H     4.152800    7.488400   14.833900
C     5.546500    7.088900   13.381200
H     6.207800    6.388900   13.203700
H     6.002100    7.948700   13.493700
H     4.922100    7.146600   12.629100
C     5.945100    4.071300   16.014400
H     6.392100    3.386100   15.458000
H     4.988500    4.093500   15.756800
C     6.052200    3.664000   17.479400
H     6.992100    3.750100   17.777600
H     5.498500    4.271100   18.032200
C     5.587200    2.231100   17.682000
H     5.736400    1.968300   18.613900
H     6.094200    1.636800   17.089900
H     4.632800    2.165100   17.471800
C    11.828600    7.934800   14.921700
H    12.083400    8.715300   14.368900
H    12.167000    7.121400   14.469600
C    12.494800    8.055300   16.280500
H    12.242000    8.918100   16.695600
H    12.175600    7.327100   16.868900
C    14.006000    7.978300   16.156000
H    14.258400    7.109600   15.779800
H    14.412700    8.081900   17.042100
H    14.322700    8.694600   15.565800
C     9.618900    9.116100   14.994900
H     8.785600    8.983200   14.476700
H    10.157000    9.801600   14.524400
C     9.249700    9.654800   16.368200
H     8.556300    9.077900   16.776900
H    10.045600    9.641700   16.955500
C     8.728000   11.071400   16.250100
H     8.369900   11.359900   17.116400
H     8.018500   11.102400   15.576400
H     9.458500   11.667800   15.984800

QM/MM links (counting starts at zero)
 10   54
 34  102
