105
QM: 49 at, MM: 56 at, Links: 2
Se    2.178900    3.329200    5.652700
Fe   -1.449400    0.000000    5.848100
N    -0.104200    1.452300    5.744000
C     0.794700    2.186400    5.718200
N    -1.969500    0.681500    7.683200
C    -2.299700    1.976200    7.884400
H    -2.285200    2.562200    7.138100
N    -0.030100   -1.117900    6.779100
C    -2.649200    2.485700    9.091400
H    -2.959200    3.380700    9.165100
N    -1.534900   -1.466600    8.566200
C    -2.549000    1.681600   10.215400
H    -2.752300    2.025500   11.077400
C    -2.144000    0.364700   10.054000
H    -2.026800   -0.205400   10.804900
C    -1.916900   -0.097100    8.768600
C    -0.277100   -1.697500    7.965100
C     0.662800   -2.473000    8.628200
H     0.453800   -2.887000    9.457500
C     1.899900   -2.629100    8.059800
H     2.557900   -3.159300    8.493700
C     2.191900   -2.011200    6.853900
H     3.041200   -2.116300    6.442200
C     1.216800   -1.248400    6.277300
H     1.428800   -0.781900    5.477300
Se   -5.077800   -3.329200    6.043400
N    -2.794600   -1.452300    5.952200
C    -3.693500   -2.186400    5.977900
N    -0.929400   -0.681500    4.012900
C    -0.599200   -1.976200    3.811800
H    -0.613600   -2.562200    4.558000
N    -2.868700    1.117900    4.917000
C    -0.249600   -2.485700    2.604700
H     0.060400   -3.380700    2.531000
N    -1.363900    1.466600    3.129900
C    -0.349800   -1.681600    1.480700
H    -0.146500   -2.025500    0.618700
C    -0.754900   -0.364700    1.642100
H    -0.872000    0.205400    0.891200
C    -0.981900    0.097100    2.927500
C    -2.621700    1.697500    3.731100
C    -3.561600    2.473000    3.067900
H    -3.352600    2.887000    2.238600
C    -4.798700    2.629100    3.636300
H    -5.456700    3.159300    3.202400
C    -5.090700    2.011200    4.842200
H    -5.940000    2.116300    5.253900
C    -4.115700    1.248400    5.418800
H    -4.327700    0.781900    6.218800
Cl   -5.647800   -3.008500   10.757000
N    -3.483300   -2.211800    9.594300
N    -2.027100   -3.711900    8.432900
N    -4.021300   -4.517600    9.479700
N    -2.677000   -5.930100    8.243400
C    -2.389000   -2.520800    8.882000
C    -4.203500   -3.280300    9.817700
C    -2.885800   -4.697600    8.734700
C    -1.500300   -6.232700    7.420000
H    -1.636000   -7.194500    7.182600
C    -1.534300   -5.552700    6.089000
H    -2.465700   -5.433300    5.807100
H    -1.060700   -6.100500    5.429300
H    -1.099700   -4.676900    6.159200
C    -0.236100   -6.258100    8.192000
H     0.109500   -5.345700    8.284400
H     0.423100   -6.810700    7.720600
H    -0.402600   -6.637100    9.080900
C    -3.786800   -6.993800    8.353400
H    -4.545300   -6.557500    8.837600
C    -3.310800   -8.121200    9.244600
H    -4.058600   -8.726400    9.431800
H    -2.971400   -7.751800   10.086700
H    -2.595900   -8.614900    8.793100
C    -4.306900   -7.382400    7.044600
H    -3.605200   -7.839400    6.535800
H    -4.595700   -6.583000    6.556800
H    -5.070500   -7.985900    7.161500
Cl    2.749000    3.008500    0.939100
N     0.584500    2.211800    2.101800
N    -0.871700    3.711900    3.263200
N     1.122500    4.517600    2.216400
N    -0.221800    5.930100    3.452700
C    -0.509800    2.520800    2.814100
C     1.304700    3.280300    1.878400
C    -0.013100    4.697600    2.961500
C    -1.398500    6.232700    4.276100
H    -1.262800    7.194500    4.513500
C    -1.364500    5.552700    5.607100
H    -0.433100    5.433300    5.889000
H    -1.838100    6.100500    6.266800
H    -1.799100    4.676900    5.536900
C    -2.662800    6.258100    3.504200
H    -3.008300    5.345700    3.411800
H    -3.322000    6.810700    3.975500
H    -2.496200    6.637100    2.615300
C     0.888000    6.993800    3.342800
H     1.646500    6.557500    2.858500
C     0.412000    8.121200    2.451500
H     1.159800    8.726400    2.264400
H     0.072600    7.751800    1.609400
H    -0.303000    8.614900    2.903000
C     1.408100    7.382400    4.651500
H     0.706400    7.839400    5.160300
H     1.696900    6.583000    5.139300
H     2.171700    7.985900    4.534600

QM/MM links (counting starts at zero)
 10   54
 34   82
