130
QM: 32 at, MM: 98 at, Links: 4
C     4.634800    4.333600   11.855200
C     2.598200    4.721900   12.836100
H     1.769600    4.550800   13.267000
C     3.029700    5.932700   12.424300
H     2.583700    6.767300   12.512600
C     5.245700    6.587700   11.419800
C     5.193700    7.957600   11.436000
H     4.406900    8.410800   11.714000
C     6.339100    8.681000   11.030100
H     6.339100    9.630100   11.030100
N     3.557100    3.760700   12.528700
N     4.272900    5.691500   11.840500
N     6.339100    5.888200   11.030100
N     6.339100    2.180500   11.030100
N     6.339100    1.033000   11.030100
Si    7.265000    4.013700   13.223200
Fe    6.339100    4.006800   11.030100
H     8.193900    3.061300   13.486100
H     6.371400    3.642700   14.250900
C     8.043500    4.333600   10.205100
C    10.080000    4.721900    9.224100
H    10.908600    4.550800    8.793200
C     9.648500    5.932700    9.635900
H    10.094500    6.767300    9.547700
C     7.432600    6.587700   10.640400
C     7.484500    7.957600   10.624200
H     8.271300    8.410800   10.346200
N     9.121200    3.760700    9.531500
N     8.405400    5.691500   10.219800
Si    5.413200    4.013700    8.837000
H     4.484300    3.061300    8.574100
H     6.306800    3.642700    7.809300
C     3.504200    2.408000   13.053800
C     3.626900    2.213000   14.448000
C     3.617100    0.909800   14.918600
H     3.685300    0.757600   15.853900
C     3.509000   -0.183000   14.067100
H     3.550800   -1.067200   14.409700
C     3.338700    0.041000   12.706700
H     3.235200   -0.699500   12.122800
C     3.313700    1.325400   12.184600
C     3.665700    3.345200   15.471600
H     3.895300    4.191700   14.992100
C     4.710700    3.124500   16.573100
H     4.422500    2.387400   17.152600
H     4.800900    3.942000   17.105500
H     5.573000    2.903900   16.165700
C     2.270400    3.521300   16.114300
H     1.600300    3.647900   15.409800
H     2.276700    4.304600   16.702500
H     2.047000    2.720900   16.636300
C     2.960600    1.556300   10.713900
H     3.462000    2.360100   10.391800
C     1.457700    1.841900   10.591800
H     1.223600    1.970200    9.649100
H     1.235900    2.652500   11.096300
H     0.951800    1.084300   10.953600
C     3.314200    0.381400    9.818300
H     4.257900    0.150500    9.940300
H     3.154100    0.624200    8.882900
H     2.756900   -0.388200   10.056500
C     8.007800    5.691500   13.706700
C     7.227200    6.733100   14.284700
C     7.719700    8.029400   14.411200
H     7.168400    8.698100   14.799500
C     8.994300    8.371400   13.986200
C     9.803100    7.345300   13.474400
H    10.691800    7.550500   13.208200
C     9.344300    6.035300   13.346400
C     5.853200    6.447500   14.865600
H     5.450000    7.283700   15.180400
H     5.939600    5.823200   15.617200
H     5.282500    6.049000   14.174400
C     9.510000    9.778900   14.075900
H     8.767900   10.389500   14.267100
H     9.926000   10.030300   13.224400
H    10.174100    9.838800   14.793600
C    10.325700    4.995500   12.858200
H    11.166400    5.433300   12.608100
H     9.953200    4.535500   12.077200
H    10.494500    4.345600   13.571400
C     9.174000    2.408000    9.006500
C     9.051300    2.213000    7.612200
C     9.061200    0.909800    7.141600
H     8.993000    0.757600    6.206300
C     9.169200   -0.183000    7.993200
H     9.127400   -1.067200    7.650500
C     9.339600    0.041000    9.353500
H     9.443100   -0.699500    9.937400
C     9.364500    1.325400    9.875600
C     9.012600    3.345200    6.588700
H     8.782900    4.191700    7.068100
C     7.967500    3.124500    5.487100
H     8.255800    2.387400    4.907700
H     7.877300    3.942000    4.954700
H     7.105200    2.903900    5.894500
C    10.407800    3.521300    5.946000
H    11.078000    3.647900    6.650400
H    10.401500    4.304600    5.357700
H    10.631200    2.720900    5.423900
C     9.717600    1.556300   11.346300
H     9.216300    2.360100   11.668400
C    11.220600    1.841900   11.468400
H    11.454700    1.970200   12.411100
H    11.442400    2.652500   10.963900
H    11.726400    1.084300   11.106600
C     9.364100    0.381400   12.241900
H     8.420400    0.150500   12.119900
H     9.524200    0.624200   13.177300
H     9.921400   -0.388200   12.003700
C     4.670500    5.691500    8.353500
C     5.451000    6.733100    7.775500
C     4.958500    8.029400    7.649000
H     5.509800    8.698100    7.260800
C     3.684000    8.371400    8.074000
C     2.875100    7.345300    8.585800
H     1.986400    7.550500    8.852000
C     3.333900    6.035300    8.713800
C     6.825100    6.447500    7.194600
H     7.228200    7.283700    6.879800
H     6.738600    5.823200    6.443100
H     7.395700    6.049000    7.885800
C     3.168300    9.778900    7.984300
H     3.910400   10.389500    7.793100
H     2.752200   10.030300    8.835900
H     2.504200    9.838800    7.266600
C     2.352500    4.995500    9.202100
H     1.511900    5.433300    9.452100
H     2.725100    4.535500    9.983000
H     2.183800    4.345600    8.488800

QM/MM links (counting starts at zero)
 10   32
 15   61
 27   81
 29  110
