149
QM: 55 at, MM: 94 at, Links: 6
Fe    5.268500   -0.579100    4.701700
N     6.528800   -6.805000    2.255600
H     6.811900   -7.638200    2.254200
H     6.069300   -6.495100    1.571600
N     7.468000   -6.344700    4.379000
N     7.489800   -5.268000    5.219500
N     6.558000   -3.075900    5.043200
N     5.823200   -2.319900    4.266700
N     5.591200   -4.018400    2.542900
N     6.388900   -4.740000    3.362100
N     4.565100   -1.974400    2.385100
N     4.449400   -0.699400    2.919800
N     9.461800   -0.691900   10.094900
H    10.036000   -0.327400    9.536000
H     9.705300   -0.875200   10.919800
N     7.259700   -1.498900   10.451900
N     6.144800   -1.652000    9.708100
N     5.664500   -1.146300    7.442500
N     6.198600   -0.657000    6.358700
N     8.373700   -0.328700    7.331500
N     7.741900   -0.738700    8.480700
N     7.938200    0.171100    5.122800
N     6.998100    0.121500    4.110200
N    -0.911800   -1.766200    7.369900
H    -0.910400   -0.895700    7.502200
H    -1.614600   -2.244900    7.594600
N     0.263000   -3.666900    6.567800
N     1.490100   -3.906500    6.014600
N     3.279000   -2.465800    5.455600
N     3.633500   -1.203800    5.437100
N     1.597600   -0.437500    6.475400
N     1.260000   -1.753000    6.448300
N     3.240300    1.018000    5.821100
N     4.483900    1.134200    5.225200
C     6.791700   -6.020200    3.285300
C     6.824900   -4.300300    4.608000
C     5.364400   -2.854700    3.067700
C     3.683700   -0.029400    2.087800
C     3.319400   -0.849600    1.014000
H     2.781400   -0.587100    0.275900
C     3.856600   -2.073800    1.198900
C     8.230000   -0.965000    9.691000
C     6.447700   -1.199400    8.513400
C     7.537000   -0.288300    6.373000
C     7.633200    0.575500    3.027900
C     8.939300    0.931300    3.363500
H     9.585600    1.293000    2.770500
C     9.129800    0.673000    4.674800
C     0.137000   -2.349800    6.833800
C     2.085100   -2.744200    5.952000
C     2.759300   -0.275500    5.954800
C     2.737300    2.232100    6.203700
C     3.675700    3.129100    5.855300
H     3.618200    4.068900    5.987500
C     4.741500    2.462000    5.267900
C     3.283700    1.386500    2.296900
H     2.714500    1.678000    1.554500
H     2.787900    1.465000    3.138800
H     4.084600    1.950300    2.335300
C     3.800900   -3.322500    0.413900
H     4.322200   -4.017700    0.867600
H     2.870100   -3.614800    0.331400
H     4.175100   -3.164300   -0.477900
C     6.996100    0.667100    1.695300
H     7.641300    1.024700    1.049600
H     6.707900   -0.224300    1.409400
H     6.219300    1.261100    1.745100
C    10.336200    0.845700    5.535300
H    10.129300    0.557600    6.449800
H    11.070600    0.301200    5.181100
H    10.601800    1.788300    5.541000
C     1.436300    2.391600    6.880700
H     1.007000    1.516000    6.976000
H     1.575800    2.787000    7.766700
H     0.860800    2.980300    6.347400
C     5.993100    3.041900    4.727500
H     5.985400    4.013000    4.856900
H     6.762200    2.655600    5.198200
H     6.060500    2.839200    3.770300
Cl   -3.183800   -4.254000   16.739500
O    -2.700800   -4.863500   17.921400
O    -4.209400   -4.956100   16.210400
O    -3.645900   -2.899500   17.015400
O    -2.117100   -4.098500   15.835000
Cl    2.738300    2.880900   13.000400
O     1.617200    2.533700   13.821100
O     3.927500    2.427000   13.666100
O     2.611500    2.225400   11.729000
O     2.778800    4.275300   12.807100
O    -4.488100  -13.390200    7.702700
N    -5.551400  -13.498100    9.702400
C    -4.529600  -13.223000    8.894600
H    -3.752900  -12.857000    9.301300
C    -6.769200  -14.042800    9.197500
H    -7.399000  -14.176300    9.935600
H    -7.157800  -13.421900    8.544700
H    -6.587500  -14.902300    8.762300
C    -5.572600  -13.133100   11.091900
H    -6.414500  -13.430400   11.494400
H    -4.821000  -13.558300   11.552700
H    -5.497800  -12.159600   11.174400
O    -4.169000   -6.152700   10.530100
N    -2.747500   -5.742300   12.243900
C    -3.284900   -6.492200   11.271100
H    -2.935800   -7.367600   11.157300
C    -1.729100   -6.268600   13.114300
H    -1.460600   -5.578400   13.757100
H    -2.081700   -7.045400   13.597800
H    -0.952500   -6.538100   12.582400
C    -3.219800   -4.450900   12.489900
H    -2.713400   -4.053400   13.229500
H    -3.104700   -3.902700   11.686400
H    -4.170100   -4.489400   12.727400
O    -4.691400   -2.284300    2.221500
N    -3.231800   -3.888800    2.820300
C    -4.144900   -3.327800    2.046600
H    -4.392100   -3.809400    1.265800
C    -2.783400   -3.195800    3.996400
H    -2.110300   -3.738100    4.458700
H    -2.389200   -2.335900    3.737600
H    -3.544200   -3.038200    4.592300
C    -2.754000   -5.266800    2.523000
H    -2.082600   -5.530200    3.187200
H    -3.509700   -5.889500    2.558600
H    -2.353600   -5.288000    1.628400
O    -5.763800    0.322500   19.598200
N    -6.098900   -1.732300   18.916900
C    -6.403500   -0.515400   18.936800
H    -7.150000   -0.224000   18.427700
C    -6.823600   -2.762300   18.204400
H    -6.385300   -3.627600   18.346600
H    -7.743900   -2.804700   18.537200
H    -6.831200   -2.554300   17.247200
C    -4.988500   -2.229900   19.777400
H    -4.878400   -3.194800   19.645100
H    -4.156500   -1.771500   19.534200
H    -5.197300   -2.049800   20.717500
O     9.828700   -1.160100   12.869700
N     7.884300   -0.500500   14.364400
C     8.956900   -1.142700   14.074300
H     9.252800   -1.720600   14.768300
C     7.232500    0.256600   13.385900
H     7.706300    0.165200   12.532600
H     6.312400   -0.063800   13.284900
H     7.224100    1.199400   13.654700
C     7.425200   -0.550100   15.661500
H     8.010600   -1.128600   16.193400
H     7.425100    0.353200   16.042600
H     6.513300   -0.908400   15.672800

QM/MM links (counting starts at zero)
 37   55
 40   59
 44   63
 47   67
 51   71
 54   75
