78
QM: 42 at, MM: 36 at, Links: 1
Fe    7.406900    4.987800    6.831100
S     3.182300    3.395700    5.075200
S    10.507200    2.936400    3.846400
S     8.433300    1.331400    9.876100
O     8.425400    9.475400    7.692200
N     6.984100    6.888100    5.688600
N     6.830900    6.263100    8.472300
N     8.305400    4.082900    5.180300
N     9.304700    5.949200    7.275400
N     5.484300    4.335800    6.384100
N     7.850800    3.402600    8.109000
C     6.636800    9.129400    4.069300
H     6.545200    9.869300    3.513100
C    11.769100    7.130900    6.941700
H    12.593100    7.536400    6.796700
C     6.305200    6.819800    4.536800
H     5.969000    5.994200    4.273500
C     5.569600    7.937600   10.259100
H     5.135400    8.503000   10.856100
C     6.426800    8.450600    9.318500
H     6.556300    9.369300    9.249500
C     5.356500    6.577100   10.311200
H     4.800800    6.209400   10.958900
C     5.981600    5.773300    9.388900
H     5.809500    4.860500    9.398800
C     7.451400    8.082900    6.058900
C     6.081100    7.899800    3.721500
H     5.568000    7.812600    2.949900
C     9.408900    7.271900    7.278300
C     8.120700    8.106200    7.440200
C    11.680700    5.767500    7.029000
H    12.444700    5.235500    6.999500
C     9.208400    3.575600    4.608600
C    10.627700    7.908500    7.067100
H    10.676600    8.835800    7.010700
C    10.422400    5.200600    7.165600
H    10.346700    4.274700    7.179700
C     7.102500    7.575600    8.465300
C     7.336100    9.222500    5.280200
H     7.713400   10.026200    5.554800
C     8.100200    2.546500    8.846800
C     4.522900    3.933200    5.832200
C     9.156300    9.789300    8.908800
H     9.988300    9.289300    8.937000
H     8.629100    9.553900    9.687500
C     9.435800   11.245700    8.897500
H     9.920400   11.485600    9.690300
H     9.958300   11.466700    8.123100
H     8.607000   11.729700    8.870800
N     4.856000   14.299500    7.036100
C     3.548900   13.505900    7.019200
H     3.651500   12.766100    6.399600
H     3.411500   13.128000    7.902000
C     4.743900   15.507400    7.937200
H     4.110900   16.128000    7.541600
H     5.605900   15.949300    7.968200
C     5.144900   14.753000    5.621000
H     4.448700   15.372200    5.347800
H     5.096000   13.982700    5.033800
C     2.295400   14.280600    6.632000
H     1.537600   13.693400    6.653100
H     2.161200   15.001600    7.252900
H     2.401200   14.638200    5.746300
C     6.283100   12.219600    6.665800
H     6.985700   11.700700    7.065600
H     5.503300   11.671600    6.557300
H     6.572000   12.539300    5.808200
C     4.303500   15.212300    9.355200
H     4.259300   16.032100    9.853600
H     3.438400   14.798100    9.342500
H     4.936500   14.620800    9.769100
C     6.488400   15.424500    5.419600
H     6.586300   15.677500    4.498800
H     6.542000   16.206500    5.973000
H     7.190900   14.814100    5.659000
C     5.953200   13.401300    7.561300
H     5.689600   13.067000    8.432900
H     6.756800   13.931800    7.683800

QM/MM links (counting starts at zero)
  4   42
