126
QM: 38 at, MM: 88 at, Links: 4
Fe    0.861300    1.042900   10.377000
S     2.593300    1.646400    8.932800
S     2.151900    0.329900   12.141100
S    -0.942800    0.214600   11.501200
Si    3.566400    3.382300   11.451000
O     2.123400    3.105700   12.204800
O     0.641000   -1.247200    8.510000
O    -0.682200    3.227700    9.258300
C     2.871200    3.369700    8.686500
C     3.359600    4.147700    9.777800
C     3.711600    5.486000    9.529700
C     3.568600    6.047800    8.277400
C     3.080000    5.282200    7.228700
C     2.703600    3.945400    7.403200
C     3.915300    0.537200   11.828800
C     4.496100    1.770500   11.510900
C     5.884200    1.790600   11.270500
C     6.629100    0.615900   11.307300
C     6.007100   -0.589700   11.625200
C     4.646500   -0.676100   11.904400
C    -0.913200    1.216400   12.939500
C     0.206500    2.043700   13.096600
C     0.272900    2.905100   14.195700
C    -0.762200    2.956000   15.097100
C    -1.869800    2.133300   14.932300
C    -1.990200    1.227200   13.864200
C     1.278800    1.985100   12.069100
C     0.701300   -0.342700    9.209900
C    -0.098100    2.324700    9.684800
H     4.052900    6.026200   10.260500
H     3.824900    6.970900    8.130100
H     2.977500    5.688200    6.352500
H     6.319500    2.633400   11.066900
H     7.581200    0.642100   11.119300
H     6.537100   -1.403100   11.634900
H     1.051800    3.470000   14.315900
H    -0.717600    3.558000   15.857000
H    -2.599100    2.188800   15.568200
Si    2.042600    2.984600    5.910700
Si    3.941100   -2.360600   12.421800
Si   -3.510600    0.135100   13.693800
C     4.382700    4.626200   12.557700
C     3.227400    1.687200    5.311500
C     0.381600    2.247500    6.178000
C     1.848200    4.217100    4.514800
C     2.442000   -2.872600   11.423600
C     3.501300   -2.371000   14.222800
C     5.279000   -3.622800   12.152500
C    -3.043800   -1.660900   13.800200
C    -4.431500    0.415200   12.100200
C    -4.657000    0.500100   15.128100
H     4.493000    4.248000   13.443600
H     5.252600    4.857700   12.195200
H     3.832500    5.422700   12.610000
H     3.348300    1.025000    6.009400
H     2.868800    1.258000    4.518700
H     4.081000    2.094700    5.100200
H    -0.248400    2.945200    6.418400
H     0.084900    1.809100    5.363900
H     0.432000    1.596100    6.895300
H     2.702800    4.633900    4.332600
H     1.530300    3.766400    3.718100
H     1.208100    4.896300    4.778400
H     1.736500   -2.219700   11.549600
H     2.676700   -2.915900   10.483500
H     2.134500   -3.743200   11.720200
H     3.179700   -3.250800   14.474800
H     4.288700   -2.151800   14.746200
H     2.808700   -1.713400   14.391500
H     4.952300   -4.499600   12.408400
H     5.527900   -3.630500   11.214300
H     6.054100   -3.397500   12.689500
H    -3.846000   -2.204300   13.740100
H    -2.447300   -1.884700   13.069400
H    -2.600800   -1.832300   14.645400
H    -4.676500    1.352200   12.036200
H    -3.863800    0.177500   11.350000
H    -5.232700   -0.129700   12.084700
H    -4.199400    0.319500   15.963600
H    -4.921800    1.432500   15.099000
H    -5.446600   -0.061700   15.064100
P    -0.401100    8.566200    9.299000
C    -0.662500    7.606900   10.783900
C    -0.113400    6.319500   10.877000
C    -0.284500    5.609400   12.043900
C    -0.985000    6.140400   13.110100
C    -1.523000    7.398500   13.022900
C    -1.375300    8.147100   11.863700
C    -1.445000   10.016400    9.287400
C    -1.100800   11.101600   10.099600
C    -1.901600   12.214500   10.130600
C    -3.051000   12.260800    9.403700
C    -3.394800   11.206500    8.579800
C    -2.602600   10.084300    8.525600
C    -0.788200    7.517300    7.885800
C    -1.781600    6.564900    8.021500
C    -2.172400    5.833300    6.866200
C    -1.606800    6.075600    5.674000
C    -0.593500    7.007900    5.540300
C    -0.187900    7.725700    6.643300
C     1.309900    9.147400    9.277700
C     1.677900   10.170800    8.378200
C     2.988800   10.596800    8.376300
C     3.928600   10.050400    9.213700
C     3.574200    9.087200   10.095700
C     2.257900    8.636400   10.150000
H     0.366400    5.936700   10.126800
H     0.115200    4.729600   12.125400
H    -1.115300    5.612500   13.914600
H    -2.011700    7.768900   13.777000
H    -1.751900    9.037800   11.801600
H    -0.289900   11.066100   10.630800
H    -1.648200   12.980100   10.671500
H    -3.639400   13.028000    9.479300
H    -4.194600   11.266700    8.033200
H    -2.845000    9.340300    7.953700
H    -2.194600    6.398200    8.884200
H    -2.865100    5.157200    6.945700
H    -1.913400    5.590900    4.892800
H    -0.174900    7.154600    4.677600
H     0.535900    8.366300    6.565700
H     1.018000   10.567500    7.790900
H     3.262700   11.294500    7.757900
H     4.849500   10.359100    9.176900
H     4.237500    8.710500   10.694700
H     1.993100    7.963400   10.795600

QM/MM links (counting starts at zero)
  4   41
 13   38
 19   39
 25   40
