92
QM: 46 at, MM: 46 at, Links: 6
C     4.733700    2.087300    5.239200
Fe    5.874800    4.248100    3.575600
N     5.806300    5.324200    1.673100
N     3.991400    3.280100    3.280300
N     7.710600    5.254900    4.130800
N     5.808800    2.958300    5.226600
N     6.958300    2.947000    2.274200
N     5.213500    5.960600    4.611400
C     6.393300    4.662000    0.675400
C     7.705900    1.808700    2.246200
N     7.856200    2.643400    0.315300
C     7.043600    3.446600    1.091600
C     6.310300    6.765200    4.897300
N     2.668000    1.591600    3.882800
N     5.801200    7.918400    5.485800
C     4.110200    6.620000    4.928100
C     4.476200    7.903200    5.562900
C     3.827200    2.324500    4.135000
C     7.591800    6.422600    4.701100
C     9.080700    4.737200    3.852000
H     9.178000    3.917000    3.424600
C     2.972700    3.315600    2.419900
C     5.153100    6.461400    1.404000
H     4.723600    6.891300    2.107400
C     8.236700    1.630200    1.064900
C    10.002700    6.659500    4.736100
H    10.749400    7.187100    4.932300
C     2.023700    2.266000    2.746400
C    10.144200    5.407400    4.189700
H    10.992500    5.041600    4.069200
C     8.606400    7.181200    5.026200
H     8.475900    8.013100    5.421300
C     5.075700    6.994300    0.253600
H     4.663300    7.819600    0.148500
C     6.381200    5.111600   -0.646000
H     6.819600    4.647700   -1.318600
C     5.658500    6.297700   -0.924800
H     5.557100    6.625300   -1.792200
C     4.608900    1.214800    6.227000
H     3.927800    0.582700    6.187800
C     6.712600    2.807900    6.273300
H     7.498200    3.283700    6.431600
C     5.503000    1.207900    7.370400
H     5.373100    0.804600    8.191600
C     6.090900    1.615800    7.133600
H     6.819700    1.243900    7.570800
C     9.182500    0.611400    0.434400
H     9.239500    0.766600   -0.508600
H     8.843100   -0.278200    0.589900
H    10.054600    0.687200    0.828100
C     7.867700    0.957500    3.433000
H     8.248500    1.474700    4.147600
H     8.453700    0.224900    3.224200
H     7.013800    0.617300    3.703400
C     0.726000    1.842200    2.298000
H     0.811700    1.035900    1.797800
H     0.343700    2.531800    1.750100
H     0.168000    1.696200    3.065900
C     2.806600    5.906000    4.736100
H     2.379300    6.235500    3.941600
H     2.241000    6.069300    5.494200
H     2.967100    4.966900    4.650700
C     2.732700    4.275200    1.413800
H     2.828300    5.155800    1.782400
H     1.836900    4.166900    1.077500
H     3.358900    4.154600    0.699200
C     3.664000    8.953700    6.022500
H     4.159900    9.493900    6.641800
H     2.890700    8.591000    6.461100
H     3.386800    9.492400    5.278400
Cl   11.216600    2.490700    6.604000
O    10.359000    2.009900    5.644100
O    12.223800    3.376900    6.007100
O    10.722100    3.231700    7.552600
O    11.984500    1.491800    6.992100
Cl    4.115400   10.343300    2.038800
O     3.470000   11.439600    2.945400
O     5.598700   10.260900    2.150900
O     3.562600   10.422300    0.828100
O     2.879300    9.556400    2.498400
O     9.946500   12.108000    0.042000
H     9.502400   12.823000    0.196200
H     9.818100   12.419000   -0.756700
O     8.601900   14.328000   -0.042000
H     9.046000   13.613000   -0.196200
H     8.730400   14.017000    0.756700
O     5.589600   12.406200    4.674500
H     4.936100   12.070900    5.408700
H     6.233300   11.409200    5.310600
O     9.636300   11.465000    2.312000
H     9.621800   11.868800    1.555400
H     8.840500   11.781500    2.227900

QM/MM links (counting starts at zero)
  9   50
 15   58
 16   66
 21   62
 24   46
 27   54
