102
QM: 37 at, MM: 65 at, Links: 6
Fe   -5.351100    9.268500    0.000000
N    -4.177700    8.134000    1.139600
N    -3.218100    8.629600    1.979200
N    -2.604700    7.653400    2.567800
N    -3.166600    6.511800    2.120400
C    -4.119600    6.816400    1.257100
H    -4.671000    6.194100    0.799100
N    -4.955400   10.851900    1.139600
N    -6.920300    8.819500    1.139600
N    -6.524600   10.402900   -1.139600
N    -5.746900    7.685000   -1.139600
N    -3.782000    9.717400   -1.139600
N    -5.864400   11.435200    1.979200
N    -6.970900    7.740700    1.979200
N    -7.484200    9.907300   -1.979200
N    -4.837900    7.101800   -1.979200
N    -3.731400   10.796300   -1.979200
N    -5.325700   12.454500    2.567800
N    -8.123000    7.697500    2.567800
N    -8.097600   10.883500   -2.567800
N    -5.376600    6.082400   -2.567800
N    -2.579300   10.839500   -2.567800
N    -4.056100   12.538700    2.120400
N    -8.830700    8.754900    2.120400
N    -7.535700   12.025100   -2.120400
N    -6.646200    5.998300   -2.120400
N    -1.871600    9.782000   -2.120400
C    -3.843400   11.561000    1.257100
C    -8.090500    9.428000    1.257100
C    -6.582700   11.720500   -1.257100
C    -6.858900    6.975900   -1.257100
C    -2.611800    9.109000   -1.257100
H    -3.028800   11.394600    0.799100
H    -8.353700   10.216600    0.799100
H    -6.031300   12.342800   -0.799100
H    -7.673500    7.142300   -0.799100
H    -2.348600    8.320300   -0.799100
C    -2.636500    5.190300    2.511900
H    -1.697400    5.112500    2.208000
H    -3.162500    4.482200    2.063600
C    -2.692100    4.976400    4.005500
H    -2.326100    4.080900    4.213800
H    -2.115300    5.649100    4.448100
C    -4.097400    5.080100    4.579000
H    -4.432400    5.993900    4.460900
H    -4.078100    4.861300    5.532900
H    -4.687600    4.452600    4.111100
C    -3.176700   13.658500    2.511900
C   -10.240200    8.956600    2.511900
C    -8.065800   13.346600   -2.511900
C    -7.525600    4.878500   -2.511900
C    -0.462100    9.580300   -2.511900
H    -3.578800   14.510700    2.208000
H   -10.777200    8.182200    2.208000
H    -9.004900   13.424400   -2.208000
H    -7.123500    4.026200   -2.208000
H     0.074900   10.354700   -2.208000
H    -2.300500   13.557000    2.063600
H   -10.590500    9.766200    2.063600
H    -7.539800   14.054700   -2.063600
H    -8.401800    4.979900   -2.063600
H    -0.111800    8.770700   -2.063600
C    -2.963700   13.717300    4.005500
C   -10.397700    9.111600    4.005500
C    -8.010200   13.560500   -4.005500
C    -7.738600    4.819600   -4.005500
C    -0.304600    9.425300   -4.005500
H    -2.371100   14.482000    4.213800
H   -11.356200    9.242500    4.213800
H    -8.376200   14.456000   -4.213800
H    -8.331200    4.055000   -4.213800
H     0.653900    9.294400   -4.213800
H    -3.834600   13.880500    4.448100
H   -10.103500    8.275800    4.448100
H    -8.587000   12.887800   -4.448100
H    -6.867700    4.656500   -4.448100
H    -0.598800   10.261100   -4.448100
C    -2.350800   12.448400    4.579000
C    -9.605200   10.276900    4.579000
C    -6.604900   13.456800   -4.579000
C    -8.351500    6.088500   -4.579000
C    -1.097100    8.260100   -4.579000
H    -2.974700   11.701400    4.460900
H    -8.646400   10.110000    4.460900
H    -6.269900   12.543000   -4.460900
H    -7.727600    6.835500   -4.460900
H    -2.055900    8.426900   -4.460900
H    -2.171000   12.574500    5.532900
H    -9.804400   10.369600    5.532900
H    -6.624200   13.675600   -5.532900
H    -8.531300    5.962400   -5.532900
H    -0.897900    8.167400   -5.532900
H    -1.512200   12.251100    4.111100
H    -9.853600   11.101800    4.111100
H    -6.014700   14.084400   -4.111100
H    -9.190100    6.285900   -4.111100
H    -0.848700    7.435200   -4.111100
B     5.351700    3.089200    0.502900
F     5.351700    3.089200    1.883900
F     6.595800    2.690700    0.040800
F     5.074200    4.366700    0.040800
F     4.383500    2.211000    0.040800

QM/MM links (counting starts at zero)
  4   37
 22   47
 23   48
 24   49
 25   50
 26   51
