85
QM: 77 at, MM: 8 at, Links: 2
Fe    2.406700    6.726600    5.277100
N     0.709700    7.553000    5.358600
N     0.988800    9.048900    7.173000
N     2.976400    7.785200    6.752600
N     5.279400    6.862600    7.085200
N     4.089500    5.855300    5.148500
N     3.784200    4.371700    3.289400
N     1.742000    5.674800    3.745700
N    -0.411500    6.567500    3.480400
C    -0.309400    7.393600    4.550000
C    -1.529600    8.311500    4.938400
C    -2.837900    8.424900    4.365400
H    -3.105800    7.922700    3.629000
C    -3.612300    9.267200    4.938400
H    -4.475700    9.371600    4.607300
C    -3.194800   10.093300    6.120400
H    -3.769000   10.726800    6.485400
C    -1.958300    9.893500    6.638200
H    -1.700500   10.336300    7.412800
C    -1.059500    9.009800    5.993100
C     0.265900    8.603000    6.194700
C     2.310100    8.738000    7.478600
C     3.046100    9.269000    8.546100
C     2.736800   10.219300    9.530800
H     1.901700   10.624200    9.588100
C     3.739700   10.501800   10.392400
H     3.546600   11.122800   11.058800
C     5.065100    9.960100   10.396700
H     5.702000   10.228300   11.020600
C     5.362300    8.963000    9.367400
H     6.180200    8.527500    9.297400
C     4.308900    8.736200    8.516400
C     4.203700    7.740900    7.406500
C     5.190500    6.090500    6.012200
C     6.296500    5.260800    5.634400
C     7.563300    5.077200    6.111900
H     7.854500    5.523600    6.873800
C     8.465100    4.143100    5.386100
H     9.346700    4.044200    5.662000
C     8.019300    3.446600    4.339900
H     8.594500    2.877900    3.881500
C     6.716100    3.565400    3.940900
H     6.391500    3.020100    3.259700
C     5.866800    4.497700    4.545800
C     4.509100    4.893700    4.263500
C     2.496200    4.742500    3.079300
C     1.698500    4.254700    1.969400
C     2.035100    3.225200    0.955000
H     2.851000    2.778900    0.935900
C     1.044400    2.991300    0.050900
H     1.210200    2.406300   -0.651500
C    -0.198200    3.588800    0.140100
H    -0.849200    3.354800   -0.481700
C    -0.516600    4.530100    1.124800
H    -1.347700    4.944100    1.160800
C     0.489300    4.807300    2.041600
C     0.593500    5.761200    3.166300
N     3.054200    8.154500    3.945200
C     2.747900    9.483100    4.180700
H     2.229300    9.699100    4.921400
C     3.180600   10.487400    3.363700
H     3.001700   11.374700    3.578000
C     3.894400   10.172500    2.200700
C     4.176400    8.788400    1.956700
H     4.634400    8.525700    1.190600
C     3.780100    7.908300    2.824600
H     4.015700    7.022800    2.663400
N     1.723800    5.318400    6.527900
C     1.065600    5.599200    7.572000
H     0.906900    6.499100    7.743900
C     0.542900    4.652500    8.518500
H    -0.001000    4.899100    9.231600
C     0.940200    3.268400    8.263800
C     1.542800    2.991300    7.209100
H     1.674200    2.095000    6.999000
C     2.062400    4.010000    6.273200
H     2.593200    3.777800    5.545300
C     4.193600   11.180400    1.001700
H     3.380800   11.362100    0.526300
H     4.834600   10.788000    0.405300
H     4.546500   12.001100    1.356100
C     0.366000    2.120200    9.182800
H    -0.204200    1.549600    8.662800
H    -0.138500    2.507100    9.900100
H     1.092900    1.605400    9.541400

QM/MM links (counting starts at zero)
 62   77
 72   81
