124
QM: 32 at, MM: 92 at, Links: 10
Fe    3.436400    5.496600    9.583000
P     5.707600    5.687500    9.677400
P     3.584200    3.230200    9.794900
N     0.823400    2.685600   10.100400
N     3.366100    5.281100    7.693200
C     6.456200    4.673200   10.997400
H     7.407200    4.862200   11.028800
H     6.076900    4.946000   11.847600
C     6.267900    3.156100   10.846000
H     6.587600    2.889700    9.970600
H     6.817500    2.707900   11.508300
C     4.832500    2.681200   11.005100
H     4.527800    2.955600   11.884600
H     4.841200    1.711500   10.997300
C     2.163000    2.343700   10.541300
H     2.291600    1.395100   10.383000
H     2.201300    2.480100   11.500600
C     0.685000    3.588100    8.973500
H    -0.233000    3.584300    8.660100
H     1.254800    3.293200    8.245100
C     3.344300    5.028200    6.583500
P     1.165200    5.305600    9.488500
P     3.288600    7.762900    9.371000
N     6.049400    8.307500    9.065500
C     4.709700    8.649400    8.624700
H     4.581200    9.598000    8.782900
H     4.671500    8.513000    7.665300
C     6.187700    7.405000   10.192400
H     7.105700    7.408800   10.505800
H     5.618000    7.699900   10.920800
N     3.506600    5.712000   11.472700
C     3.528500    5.964900   12.582400
C     6.756300    5.432800    8.218300
C     6.389800    5.960500    6.987900
H     5.622300    6.481500    6.928900
C     7.129800    5.731800    5.859000
H     6.867600    6.103600    5.047800
C     8.267900    4.945800    5.926100
H     8.754500    4.761800    5.155400
C     8.674300    4.441200    7.135500
H     9.453900    3.936000    7.183900
C     7.939900    4.676500    8.283500
H     8.227900    4.332900    9.099100
C     3.934200    2.283300    8.281600
C     5.097300    2.517400    7.555200
H     5.724800    3.119700    7.885000
C     5.346600    1.865500    6.338200
H     6.135300    2.023800    5.871000
C     4.408300    0.989400    5.845600
H     4.549800    0.575000    5.025400
C     3.268700    0.723300    6.554700
H     2.655100    0.104200    6.229500
C     3.022400    1.373000    7.760300
H     2.235600    1.196500    8.222800
C    -0.264500    1.706100   10.401300
C    -1.640000    2.345900   10.198200
H    -1.666900    3.194700   10.647700
H    -2.317300    1.770800   10.561800
H    -1.798200    2.475300    9.261100
C    -0.157700    0.440800    9.558000
H    -0.200000    0.671200    8.627500
H    -0.883000   -0.150300    9.774800
H     0.676800    0.002900    9.742100
C    -0.174900    1.343400   11.888600
H     0.671500    0.925300   12.064500
H    -0.884100    0.737300   12.112900
H    -0.254200    2.140400   12.416900
C     3.296400    4.651200    5.186300
H     4.149500    4.820900    4.780400
H     2.620800    5.166000    4.739800
H     3.087600    3.717100    5.114300
C     0.416500    6.319900    8.168500
H    -0.534400    6.130900    8.137200
H     0.795800    6.047100    7.318300
C     0.604900    7.837000    8.319900
H     0.285200    8.103400    9.195300
H     0.055300    8.285200    7.657600
C     2.040200    8.311900    8.160800
H     2.344900    8.037500    7.281400
H     2.031500    9.281600    8.168600
C     0.116400    5.560300   10.947600
C     0.482900    5.032600   12.178000
H     1.250400    4.511600   12.237000
C    -0.257100    5.261300   13.306900
H     0.005100    4.889500   14.118100
C    -1.395100    6.047300   13.239800
H    -1.881800    6.231300   14.010500
C    -1.801500    6.551900   12.030400
H    -2.581100    7.057100   11.982000
C    -1.067200    6.316600   10.882400
H    -1.355100    6.660200   10.066800
C     2.938500    8.709800   10.884300
C     1.775400    8.475700   11.610700
H     1.147900    7.873400   11.280900
C     1.526100    9.127600   12.827700
H     0.737400    8.969300   13.294900
C     2.464400   10.003700   13.320300
H     2.323000   10.418100   14.140500
C     3.604000   10.269800   12.611200
H     4.217600   10.888900   12.936400
C     3.850300    9.620100   11.405600
H     4.637200    9.796600   10.943100
C     7.137300    9.287000    8.764600
C     8.512700    8.647200    8.967700
H     8.539600    7.798400    8.518200
H     9.190000    9.222300    8.604100
H     8.671000    8.517800    9.904800
C     7.030400   10.552300    9.607900
H     7.072800   10.321900   10.538400
H     7.755800   11.143400    9.391100
H     6.196000   10.990200    9.423800
C     7.047600    9.649700    7.277300
H     6.201200   10.067800    7.101400
H     7.756800   10.255800    7.053000
H     7.127000    8.852700    6.749000
C     3.576300    6.341900   13.979600
H     2.723200    6.172200   14.385500
H     4.251900    5.827100   14.426100
H     3.785100    7.276000   14.051600
F     3.453000    9.482600    3.796800
F     3.942300    7.402800    3.252500
F     2.506400    7.785300    4.885400
F     4.618700    8.219500    5.188200
B     3.657300    8.215100    4.274000

QM/MM links (counting starts at zero)
  1   32
  2   43
  3   54
 20   67
 21   71
 21   80
 22   77
 22   91
 23  102
 31  115
