154
QM: 86 at, MM: 68 at, Links: 8
C     0.112800   13.920800   19.540200
C    -0.127700   13.712100   20.908300
C     0.183100   13.579000   23.127600
C     0.638600   13.753900   24.431000
H     1.206500   14.478400   24.669400
C     0.222900   12.822500   25.358200
H     0.497200   12.912100   26.262500
C    -0.589900   11.749900   24.995800
H    -0.834600   11.118900   25.661000
C    -1.055300   11.569700   23.700700
H    -1.613200   10.836700   23.463800
C    -0.656400   12.524700   22.768700
C    -1.820300   11.952200   20.602000
C    -2.997400   11.510200   21.191500
H    -3.157300   11.653000   22.117400
C    -3.927500   10.862400   20.409500
H    -4.720100   10.510100   20.796100
C    -3.694100   10.733200   19.051900
H    -4.333800   10.310900   18.490700
C    -2.524200   11.225200   18.526700
H    -2.387300   11.168700   17.587200
C     0.313000   15.160000   18.928400
C    -0.080700   17.203300   18.073700
C     0.741500   16.541100   17.172200
C     2.028200   14.382900   17.340800
C     3.170600   14.873300   16.720200
H     3.258400   15.801200   16.532700
C     4.168400   13.995500   16.384700
H     4.940800   14.298500   15.921100
C     4.038100   12.658900   16.730500
H     4.725200   12.034900   16.525100
C     2.892300   12.255500   17.376000
H     2.822100   11.345800   17.645100
C     0.216000   10.785800   17.299300
C     0.613200   10.982200   15.958800
C     1.800400   10.915300   14.055400
C     1.267700   12.197600   14.151800
C    -0.469300   13.189100   15.670200
C    -1.005700   14.013800   14.683600
H    -0.717200   13.941600   13.781800
C    -1.966000   14.940500   15.041700
H    -2.312000   15.549300   14.401000
C    -2.415900   14.964600   16.349700
H    -3.102400   15.566000   16.613200
C    -1.853200   14.105400   17.262500
H    -2.196100   14.099300   18.148400
C    -0.106500    9.536900   17.875400
C    -1.002600    7.529500   18.337400
C    -1.618000    6.287500   18.247600
H    -1.862200    5.908100   17.411000
C    -1.855200    5.633400   19.441300
H    -2.247700    4.768000   19.429500
C    -1.526600    6.222500   20.661400
H    -1.733600    5.755900   21.463000
C    -0.913400    7.457500   20.752800
H    -0.706900    7.853500   21.591400
C    -0.613600    8.091800   19.550500
C     0.887900   10.021400   20.085800
C     1.481800    9.351700   21.149900
H     1.262900    8.445700   21.329600
C     2.393000   10.018900   21.939200
H     2.771100    9.596900   22.701300
C     2.749300   11.318200   21.605700
H     3.396000   11.791400   22.114900
C     2.139600   11.906200   20.515400
H     2.414300   12.779300   20.262500
Fe    0.162400   12.347300   18.418500
N     0.477600   14.296000   21.970900
N    -0.862200   12.648700   21.378400
N    -1.552900   11.788300   19.292500
N    -0.304100   16.346300   19.155100
N     1.015500   15.285100   17.737400
N     1.860100   13.088100   17.646800
N     1.385500   10.195200   15.165800
N     0.487500   12.205400   15.317100
N    -0.834200   13.267200   16.959300
N    -0.702500    8.447400   17.334800
N    -0.016000    9.322400   19.241000
N     1.166800   11.299600   19.787800
Cl    0.796100    5.224100   15.464800
Cl   -0.094500    6.781800   12.664400
Cl   -0.634100    3.505000   12.934200
Cl    1.751900    4.587600   10.864600
Cl    2.587800    3.036500   13.721200
Cl    3.150600    6.322400   13.308200
Sb    1.268200    4.908000   13.154100
C     1.515800   15.318000   21.892900
H     1.876200   15.347300   20.982300
H     2.234100   15.101000   22.522600
H     1.131800   16.191400   22.122400
C    -1.312100   16.590100   20.186300
H    -1.769700   15.751400   20.400900
H    -1.964700   17.242900   19.857300
H    -0.877300   16.941300   20.992400
C    -0.608900   18.460500   17.813400
H    -1.150800   18.917100   18.445400
C    -0.299300   19.007900   16.582500
H    -0.631100   19.871800   16.369100
C     0.480800   18.334600   15.644000
H     0.642200   18.737300   14.798600
C     1.026000   17.088500   15.917100
H     1.566000   16.631400   15.284300
C     1.960700    8.894300   15.486700
H     1.759500    8.669900   16.419400
H     2.932500    8.927200   15.359800
H     1.577400    8.213300   14.896800
C     2.669100   10.535000   13.037600
H     3.005400    9.649500   12.968900
C     3.013900   11.521300   12.130600
H     3.601500   11.309900   11.413500
C     2.518200   12.820500   12.244100
H     2.792500   13.473900   11.609900
C     1.636000   13.192700   13.253800
H     1.302500   14.079900   13.326300
C    -1.205300    8.296000   15.973900
H    -1.058800    9.129300   15.478100
H    -2.163400    8.094300   15.999100
H    -0.730000    7.563000   15.531000
C     5.197300   16.379500   21.009200
F     4.101200   16.819500   21.654300
F     6.220800   16.570700   21.855400
F     5.407900   17.185100   19.977900
O     4.857100   13.947400   21.750400
O     3.885200   14.659700   19.655500
O     6.301600   14.403700   19.839900
S     5.050100   14.644400   20.505100
C     6.936400   20.930600   20.099900
F     6.768400   19.686700   19.656700
F     5.727400   21.486500   20.159800
F     7.389100   20.856700   21.348000
O     9.331100   21.267700   19.230100
O     7.954200   23.219100   19.542200
O     7.472500   21.694100   17.723600
S     8.049100   21.883900   19.019200
C     6.435300    9.625700   13.495400
F     5.686200    9.068100   14.450000
F     7.466000    8.804900   13.272400
F     5.702400    9.653900   12.377200
O     7.735000   11.045000   15.194000
O     5.776800   12.012200   14.147500
O     7.809000   11.695600   12.854100
S     7.001100   11.292200   13.976600
C     5.746300   18.352900   15.879600
C     6.275800   19.641600   15.473900
H     5.612800   20.109800   14.924400
H     7.096200   19.509300   14.954600
H     6.476400   20.176200   16.268400
N     5.304300   17.366300   16.185600
C     6.576800    5.814600   12.421800
C     6.646900    5.594600   13.862900
H     7.578900    5.440500   14.124100
H     6.106900    4.812300   14.101500
H     6.301200    6.384100   14.330500
N     6.536600    6.011400   11.306800

QM/MM links (counting starts at zero)
 22   94
 23  100
 35  106
 36  112
 67   86
 70   90
 73  102
 76  114
