89
QM: 51 at, MM: 38 at, Links: 0
Fe    3.166400    4.302000    2.782100
N     6.017600    5.508600    2.794200
H     6.117000    5.498900    3.689500
N     4.881100    5.090900    2.213700
N     2.928500    4.346100    0.869200
N     1.359200    3.549000    2.620400
N     0.395700    3.113300    3.443500
H     0.418600    3.214500    4.371400
N     1.863400    7.103600    2.767800
H     1.798200    7.187700    1.878400
N     2.449900    6.047100    3.341600
N     3.400000    4.189400    4.689100
N     3.956000    2.521800    2.946000
N     4.269600    1.510100    2.119700
H     4.126600    1.582800    1.231600
C     6.872200    5.971200    1.859600
H     7.722000    6.311700    2.023800
C     6.283400    5.857000    0.630100
H     6.638400    6.098500   -0.194700
C     5.029000    5.297300    0.889900
C     3.896100    4.869000    0.091600
C     3.739500    4.928600   -1.292500
H     4.394700    5.311800   -1.830400
C     2.579200    4.399900   -1.849100
H     2.451900    4.431700   -2.769800
C     1.615500    3.828000   -1.042400
H     0.849800    3.451500   -1.413300
C     1.809900    3.825500    0.334200
C     0.912700    3.335200    1.364800
C    -0.354200    2.731500    1.398700
H    -0.877000    2.464000    0.677600
C    -0.648000    2.625400    2.733000
H    -1.432200    2.275800    3.090600
C     1.415300    7.962700    3.698400
H     0.978100    8.766500    3.530700
C     1.711000    7.453600    4.938100
H     1.514500    7.826800    5.767100
C     2.373400    6.252700    4.678900
C     2.982400    5.198600    5.472600
C     3.163500    5.151300    6.858300
H     2.870700    5.846300    7.402500
C     3.792100    4.040100    7.398200
H     3.942900    3.999300    8.314900
C     4.197300    2.991700    6.592600
H     4.608700    2.241300    6.956300
C     3.972300    3.091300    5.223800
C     4.277000    2.108200    4.186200
C     4.793400    0.806100    4.150400
H     5.085600    0.286400    4.864000
C     4.769300    0.474000    2.813400
H     5.052400   -0.334100    2.450900
C     8.130600    2.776400    6.880400
C     7.573600    3.263400    8.212600
C     7.529300    4.610400    8.541400
H     7.877800    5.248700    7.961700
C     6.960500    4.991400    9.742300
H     6.910000    5.889600    9.977600
C     6.468000    4.014000   10.587800
H     6.076000    4.279400   11.388200
C     7.074400    2.361100    9.133000
H     7.119700    1.456600    8.921500
N     6.526800    2.701300   10.311200
O     8.415300    3.675400    6.040400
O     8.264100    1.549300    6.711200
C     4.552800    1.191100   -1.330800
C     4.071900    0.682900   -2.675400
C     2.719500    0.562100   -2.978600
H     2.073400    0.833200   -2.367200
C     2.350300    0.034300   -4.198600
H     1.451800   -0.054800   -4.422100
C     3.331400   -0.359800   -5.079900
H     3.071800   -0.739200   -5.888100
C     4.980900    0.297000   -3.646900
H     5.885900    0.406400   -3.463100
N     4.642400   -0.224400   -4.833300
O     5.763400    1.445700   -1.182900
O     3.661200    1.307800   -0.436900
O     7.401800    0.248000   11.772200
H     6.784500   -0.277400   11.912100
H     7.061300    0.938200   11.480900
O     6.464100    7.659200    7.024400
H     7.041000    8.232000    6.942400
H     5.799800    8.011700    7.362900
O     6.445500    5.481700    5.392200
H     6.423200    6.094400    5.910200
H     7.030800    4.952200    5.605700
O     9.451500    0.603700   13.613200
H     8.786100    0.456900   13.119500
H     9.976700    0.008200   13.442900

QM/MM links (counting starts at zero)
