98
QM: 28 at, MM: 70 at, Links: 9
Fe    0.464200    4.041700   17.000900
P     1.137700    2.157800   14.591700
P     1.097900    2.859800   19.817000
P     1.083300    7.084400   16.524000
O     1.642900    3.012100   15.734700
O    -0.711200    2.454500   17.190700
O     1.613700    3.467100   18.531100
O    -0.730400    4.995000   18.283900
O     1.591800    5.666100   16.716700
O    -0.710900    4.646500   15.544200
N    -1.916300    0.617900   16.428700
N    -1.906600   -0.292300   15.378700
N    -1.939600    5.232000   20.250100
N    -1.967700    4.767000   21.540600
N    -1.922300    6.148500   14.274200
N    -1.970600    7.490700   13.970300
C    -0.239500    1.253500   15.111100
C    -0.919200    1.554300   16.301700
C    -0.913100    0.090300   14.607600
C    -0.610800   -0.684400   13.367000
C    -0.287500    3.743400   20.361300
C    -0.935200    4.665500   19.504000
C    -1.005700    3.900100   21.588200
C    -0.713600    3.155400   22.858200
C    -0.329100    7.063600   15.489800
C    -0.934700    5.855100   15.149600
C    -1.013600    8.014500   14.689200
C    -0.771300    9.483000   14.621200
C     2.439400    1.055100   14.088200
C     2.609800    0.647800   12.779600
C     3.624900   -0.241000   12.423600
C     4.492200   -0.640800   13.373800
C     4.378600   -0.264700   14.700600
C     3.364200    0.592500   15.056600
C     0.787300    3.160800   13.147000
C    -0.365400    3.001300   12.400900
C    -0.591100    3.801300   11.257900
C     0.357900    4.693700   10.920000
C     1.490800    4.905300   11.636600
C     1.718400    4.104100   12.788700
C    -2.886700    0.478000   17.460600
C    -3.395500   -0.781200   17.703300
C    -4.373700   -0.912200   18.721600
C    -4.738600    0.121300   19.438200
C    -4.235000    1.340200   19.220500
C    -3.303200    1.565700   18.186300
C     2.427200    2.942500   21.034800
C     2.639900    1.910300   21.914800
C     3.746600    1.987100   22.797000
C     4.584500    3.054300   22.749400
C     4.370300    4.082600   21.871700
C     3.256400    4.032300   20.998500
C     0.731400    1.114700   19.574300
C     1.625600    0.404900   18.841800
C     1.400500   -0.971400   18.601400
C     0.260000   -1.546900   19.098000
C    -0.620100   -0.847900   19.817000
C    -0.400700    0.506200   20.068700
C    -2.846200    6.265700   19.871400
C    -3.230800    6.414500   18.574100
C    -4.120700    7.481200   18.261200
C    -4.599200    8.305700   19.245400
C    -4.178800    8.132900   20.522300
C    -3.293100    7.107300   20.853400
C     0.730900    7.826000   18.125100
C     1.650300    7.548400   19.125200
C     1.382900    8.021900   20.442900
C     0.243500    8.720100   20.694600
C    -0.601400    8.994600   19.737600
C    -0.397000    8.556700   18.417700
C     2.423800    8.022500   15.798200
C     2.544400    9.408500   15.938800
C     3.626500   10.066500   15.358300
C     4.537400    9.376100   14.671100
C     4.417800    8.053300   14.469200
C     3.368200    7.343100   15.070200
C    -2.829900    5.259600   13.668700
C    -3.263600    5.524500   12.382800
C    -4.177200    4.656500   11.768200
C    -4.574100    3.545600   12.416800
C    -4.160500    3.251900   13.650500
C    -3.270700    4.142300   14.324100
H    -3.008800    6.992200   21.751500
H     2.444200    7.054400   18.937000
H     1.999200    7.844500   21.141400
H     0.071600    9.014300   21.581400
H    -1.380100    9.498200   19.944000
H    -1.024600    8.764800   17.739600
H     1.893800    9.897000   16.426400
H     3.708800   11.007600   15.453500
H     5.290500    9.837400   14.317300
H     5.053800    7.599000   13.920400
H     3.308800    6.399100   14.965900
H    -2.943600    6.287700   11.920100
H    -4.511200    4.852700   10.901800
H    -5.176500    2.948800   11.979100
H    -4.453900    2.454900   14.072400
H    -2.989800    3.958400   15.210800

QM/MM links (counting starts at zero)
  1   28
  1   34
  2   46
  2   52
  3   64
  3   70
 10   40
 12   58
 14   76
