79
QM: 55 at, MM: 24 at, Links: 2
Fe    7.807500   10.902400    8.805300
N     8.096700    9.032200    8.234600
N     9.318500    7.194900    8.451300
N     9.491900   10.640400    9.813300
N     6.962300   10.237100   10.430100
N     7.900700   12.682600    9.613300
N     9.008200   11.419900    7.345200
N     6.159800   11.271900    7.915000
C     7.583400    8.071200    7.375300
C     6.531600    8.118000    6.478100
H     6.010000    8.903400    6.364200
C     6.276100    6.966400    5.754100
H     5.566700    6.970900    5.121700
C     7.023100    5.797000    5.920600
H     6.800200    5.025000    5.414500
C     8.077800    5.743600    6.805500
H     8.592900    4.954000    6.916100
C     8.350200    6.896000    7.526200
C     9.126700    8.466500    8.826700
C     9.968700    9.247400    9.776400
H     9.912100    8.849400   10.680300
H    10.914800    9.224100    9.484800
C     5.794600    9.643700   10.606600
H     5.175100    9.571500    9.889300
C     5.471200    9.099100   11.925000
H     4.642700    8.676900   12.117200
C     6.485600    9.250900   12.887000
H     6.335300    8.881100   13.748500
C     7.618300    9.861600   12.680300
H     8.260500    9.960600   13.373100
C     7.835100   10.338400   11.465800
C     9.085500   11.132200   11.112700
H     9.803600   11.087000   11.806600
C     8.657600   12.673600   10.691500
C     8.888400   13.778000   11.484800
H     9.348300   13.715000   12.312700
C     8.397300   15.014000   10.989800
H     8.738700   15.841000   11.311600
C     7.463900   14.979700   10.080300
H     6.956800   15.757800    9.879200
C     7.229100   13.810700    9.425600
H     6.529800   13.801300    8.782000
C    10.478400   11.576000    9.146300
H    10.369600   12.488200    9.512800
H    11.401300   11.275500    9.337300
C    10.261600   11.600000    7.716100
C    11.303800   11.795300    6.694900
H    12.220200   11.908200    6.918400
C    10.856700   11.802000    5.392100
H    11.500200   11.944200    4.708300
C     9.618500   11.627400    5.025600
H     9.357100   11.653400    4.111700
C     8.717100   11.405800    6.025600
H     7.818100   11.228500    5.775400
C     5.139900   11.587200    7.507200
C    10.357300    6.271800    8.951900
H     9.957100    5.641900    9.586500
H    11.060200    6.785300    9.401000
H    10.744700    5.777200    8.199900
C     3.830800   11.973300    7.029000
H     3.806500   11.905400    6.051300
H     3.644000   12.896700    7.297100
H     3.153300   11.377700    7.414500
Cl   13.823600    8.821100    8.915100
O    12.773800    8.936800    7.953000
O    13.499500    7.909200    9.847900
O    13.842000   10.105400    9.498200
O    15.059500    8.580000    8.269200
Cl   12.353700   15.232600    8.021100
O    10.961100   15.278200    8.155200
O    12.839500   14.045500    8.519500
O    13.013400   16.343300    8.579800
O    12.706800   15.142700    6.653600
N    13.549300   10.984600    3.741900
C    13.999800   10.065600    4.274800
C    14.612700    8.911300    4.884900
H    14.132400    8.102500    4.607800
H    14.572000    8.996300    5.860300
H    15.547600    8.849100    4.600000

QM/MM links (counting starts at zero)
  2   55
 54   59
