77
QM: 37 at, MM: 40 at, Links: 4
Fe    9.034900    2.113500    3.676000
N    13.039500    1.672600    1.924300
N    11.122500    1.818500    2.989300
N     9.110800    0.067200    3.156000
N     6.967600    1.374900    4.168900
N     9.866500    2.734500    7.966800
N     9.470800    2.444500    5.825000
N     8.900800    4.209300    3.930700
N     8.474500    2.845900    1.641800
C    12.207800    2.482900    2.639100
C    12.471700    0.453200    1.809700
C    11.270800    0.522300    2.462000
C    10.165000   -0.380200    2.579200
C     7.882300   -0.708600    3.292700
C     7.074300   -0.074900    4.386400
C     9.733100    1.824300    6.963000
C     9.672600    3.961600    7.469400
C     9.411500    3.800300    6.142700
C     9.077500    4.720100    5.079000
C     8.588600    5.008100    2.756300
C     8.142900    4.147800    1.716000
H    13.882900    1.924100    1.566300
H    12.834000   -0.303400    1.363200
H    10.210400   -1.267400    2.245900
H     7.395300   -0.693200    2.477700
H     8.089400   -1.607300    3.521800
H     6.203900   -0.455100    4.394200
H     7.497400   -0.236200    5.220900
H     6.430000    1.505500    3.396900
H    10.065700    2.531000    8.873000
H     9.709200    4.781500    7.947300
H     8.995300    5.655300    5.230000
H     9.365300    5.474800    2.472500
H     7.904600    5.632200    2.968500
H     8.446700    4.539600    0.904900
H     7.193600    4.174700    1.743300
H     7.576600    2.538600    1.700400
C    12.142000    4.361000    4.217100
C    12.374600    5.676400    4.559500
C    12.992400    6.521300    3.658600
C    13.347000    6.050900    2.406100
C    13.121000    4.727800    2.058400
C    12.499500    3.869400    2.976300
C     6.255000    2.002900    5.308200
C    10.393100   -0.426300    6.170100
C    10.307800   -1.797400    6.259900
C     9.614300   -2.398500    7.292400
C     9.051700   -1.616900    8.276700
C     9.127500   -0.238100    8.212900
C     9.774600    0.374500    7.132200
C     8.730900    2.191100    0.536400
H    11.727700    3.783000    4.846000
H    12.111500    6.000900    5.412300
H    13.173900    7.422000    3.896800
H    13.748600    6.640400    1.779800
H    13.384200    4.405200    1.204300
H     5.319500    1.972100    5.145400
H     6.449300    1.532400    6.110200
H     6.534700    2.907300    5.398000
H    10.872500   -0.026900    5.454000
H    10.731600   -2.338900    5.603700
H     9.525800   -3.343200    7.322300
H     8.607400   -2.031700    9.008400
H     8.742700    0.293800    8.900300
H     8.498300    1.307700    0.796800
H     9.578200    2.181500    0.106800
H     8.165100    2.507900   -0.157500
Cl    4.304000    1.536200    1.089000
O     4.970200    1.447900   -0.082000
O     3.187200    2.275600    0.962200
O     5.130800    2.452200    1.820200
O     4.246400    0.453200    1.882700
Cl    5.139500    6.111500    4.818500
O     5.353200    5.204000    3.803100
O     4.302600    7.145400    4.330400
O     6.301700    6.584700    5.388900
O     4.431500    5.392200    5.843300

QM/MM links (counting starts at zero)
  4   43
  8   50
  9   42
 15   49
