80
QM: 15 at, MM: 65 at, Links: 5
Fe    8.755100    4.405300    8.529800
N     9.455100    7.409400    8.251200
N     9.773700    6.745000   10.276400
C     7.851900    2.780900    7.414000
C     8.042300    2.365100    8.811700
C     9.463700    2.298300    9.012800
H     9.880800    2.052000    9.830100
C    10.157700    2.647600    7.833300
C     9.173200    2.938500    6.869500
H     9.357900    3.204200    5.976300
C     9.369200    6.289800    9.041200
C     9.907500    8.503400    8.968900
H    10.050700    9.380400    8.632800
C    10.104900    8.090000   10.227300
H    10.414500    8.620500   10.952100
C     6.643300    2.797300    6.447500
C     6.875100    3.820000    5.320100
H     7.678800    3.573900    4.816100
H     6.993000    4.712400    5.707600
H     6.101200    3.824500    4.718900
C     5.297300    3.158200    7.085200
H     5.374300    4.020000    7.545100
H     5.045400    2.464800    7.730500
H     4.611600    3.219900    6.387800
C     6.519800    1.416200    5.773700
H     5.754400    1.418500    5.161800
H     6.387900    0.728800    6.459500
H     7.339000    1.223600    5.271400
C     7.076900    1.833200    9.892000
C     5.988300    2.831000   10.337300
H     5.359600    2.381200   10.939700
H     5.506900    3.162000    9.550600
H     6.406800    3.583800   10.804900
C     6.415200    0.531400    9.399300
H     7.109300   -0.112200    9.145500
H     5.850200    0.725800    8.622500
H     5.865100    0.152800   10.116600
C     7.852300    1.461100   11.169400
H     8.497500    0.752300   10.965200
H     7.224500    1.144600   11.852100
H     8.328400    2.249700   11.504000
C    11.664800    2.656500    7.604500
C    12.425100    2.387000    8.906200
H    12.208900    3.083400    9.560900
H    13.388900    2.393200    8.728900
H    12.164000    1.511900    9.261800
C    12.030300    1.556500    6.597600
H    11.811900    0.680100    6.977600
H    12.989800    1.598000    6.402400
H    11.522600    1.689500    5.769900
C    12.121000    4.002800    7.031000
H    11.717300    4.135200    6.147800
H    13.097400    4.008500    6.948100
H    11.839800    4.725300    7.630400
C     8.944900    7.509000    6.843700
C     9.215800    8.914300    6.304600
H     8.759800    9.573900    6.867900
H     8.881000    8.981900    5.386000
H    10.180400    9.087500    6.314200
C     9.672800    6.498800    5.963400
H    10.634200    6.688700    5.974500
H     9.337500    6.564500    5.044800
H     9.514700    5.594000    6.304900
C     7.436200    7.263400    6.875500
H     7.257000    6.379800    7.259600
H     7.079600    7.301600    5.963500
H     7.004700    7.951500    7.424100
C     9.655800    5.976300   11.553900
C    10.032500    6.851400   12.739100
H    10.968300    7.129900   12.655000
H     9.916000    6.344300   13.569500
H     9.456000    7.643600   12.756400
C    10.558100    4.753300   11.511800
H    10.357700    4.226900   10.709900
H    10.403000    4.205400   12.309400
H    11.495100    5.039400   11.489100
C     8.189700    5.560600   11.695600
H     7.623500    6.360700   11.710500
H     8.071000    5.061100   12.530300
H     7.935700    4.994900   10.937100

QM/MM links (counting starts at zero)
  1   54
  2   67
  3   15
  4   28
  7   41
