144
QM: 78 at, MM: 66 at, Links: 6
Fe    0.000000    0.000000    0.000000
S     1.127900    0.801700    1.882000
N    -0.832600    1.822200   -0.193100
N    -1.610800   -0.620700    1.016900
C    -0.284400    2.905800   -0.848300
C    -1.167600    4.035100   -0.711000
C    -2.225300    3.639700    0.017900
C    -2.025500    2.252900    0.328200
C    -2.932800    1.461200    1.034800
C    -2.718600    0.124600    1.364100
C    -3.613300   -0.665900    2.173300
C    -3.047600   -1.877600    2.309500
C    -1.809900   -1.859900    1.588400
C     0.923300    2.924300   -1.521400
H    -0.968800    4.850600   -1.045900
H    -2.938900    4.153800    0.283500
H    -4.421800   -0.337800    2.598600
H    -3.325500   -2.544400    2.846400
S    -1.127900   -0.801700   -1.882000
N     0.832600   -1.822200    0.193100
N     1.610800    0.620700   -1.016900
C    -0.923300   -2.924300    1.521400
C     1.809900    1.859900   -1.588400
C     0.284400   -2.905800    0.848300
C     2.025500   -2.252900   -0.328200
C     2.718600   -0.124600   -1.364100
C     3.047600    1.877600   -2.309500
C     1.167600   -4.035100    0.711000
C     2.225300   -3.639700   -0.017900
C     2.932800   -1.461200   -1.034800
C     3.613300    0.665900   -2.173300
H     3.325500    2.544400   -2.846400
H     0.968800   -4.850600    1.045900
H     2.938900   -4.153800   -0.283500
H     4.421800    0.337800   -2.598600
K     6.245200   -2.085500    5.581200
O     4.688600   -0.837200    3.670200
O     5.384700    0.511800    6.046700
O     7.335700   -0.593800    7.655200
C     3.964700    0.289300    4.168100
C     4.917000    1.194000    4.880200
C     6.267400    1.309500    6.806900
C     6.651900    0.578900    8.041400
C     7.764000   -1.364000    8.769200
C     3.882200   -1.676900    2.860900
H     3.504400    0.835800    3.553000
H     3.245600   -0.030600    4.774200
H     4.476800    1.962000    5.145900
H     5.678000    1.422900    4.285300
H     7.076300    1.578800    6.218600
H     5.829900    2.085300    7.040200
H     7.297300    1.117300    8.650900
H     5.880800    0.380500    8.601800
H     8.219000   -0.837100    9.295000
H     7.009700   -1.655100    9.321800
H     3.114300   -1.950300    3.442500
H     3.529700   -1.202700    2.156600
O     7.801800   -3.333900    7.492300
O     7.105700   -4.682900    5.115800
O     5.154700   -3.577300    3.507200
C     8.608200   -2.494100    8.301500
C     4.726400   -2.807000    2.393200
C     8.525700   -4.460400    6.994400
C     7.573500   -5.365000    6.282200
C     6.223000   -5.480500    4.355600
C     5.838500   -4.749900    3.121000
H     9.376100   -2.220700    7.720000
H     8.960700   -2.968400    9.005900
H     4.271400   -3.333900    1.867500
H     5.480700   -2.515900    1.840700
H     8.986000   -5.006800    7.609500
H     9.244800   -4.140400    6.388300
H     8.013700   -6.133100    6.016600
H     6.812400   -5.593900    6.877200
H     5.414100   -5.749800    4.943900
H     6.660500   -6.256300    4.122300
H     5.193100   -5.288400    2.511600
H     6.609600   -4.551500    2.560700
C     0.082200    0.598500    3.299600
C     0.026600   -0.611400    3.983900
C    -0.786400   -0.765900    5.071100
C    -1.579300    0.267400    5.515400
C    -1.543500    1.477100    4.857900
C    -0.729400    1.637100    3.756200
C    -4.229400    2.091700    1.433300
C    -4.290000    3.111000    2.379800
C    -5.491400    3.747400    2.656700
C    -6.647100    3.345600    2.022600
C    -6.616900    2.321900    1.108400
C    -5.405000    1.706800    0.816000
C     1.276300    4.193100   -2.245900
C     2.144200    5.121700   -1.688900
C     2.387500    6.322000   -2.341900
C     1.793000    6.599800   -3.544100
C     0.945500    5.683700   -4.116700
C     0.682300    4.490200   -3.470400
H    -0.782700   -1.543000    5.456200
H    -2.041300    0.203900    6.332500
H    -2.117600    2.172900    5.134700
H    -0.786000    2.439300    3.277300
H    -3.484500    3.421700    2.834200
H    -5.512300    4.400500    3.300700
H    -7.464700    3.740700    2.239200
H    -7.381000    2.043200    0.654100
H    -5.432900    1.063700    0.154000
H     2.540800    4.964900   -0.884100
H     2.886000    6.891200   -1.988000
H     1.999300    7.414600   -4.018500
H     0.543100    5.806200   -5.006400
H     0.114800    3.891200   -3.876700
H     0.525500   -1.334100    3.614400
C    -0.082200   -0.598500   -3.299600
C    -1.276300   -4.193100    2.245900
C    -0.026600    0.611400   -3.983900
C     0.729400   -1.637100   -3.756200
C    -2.144200   -5.121700    1.688900
C    -0.682300   -4.490200    3.470400
C     0.786400    0.765900   -5.071100
H    -0.525500    1.334100   -3.614400
C     1.543500   -1.477100   -4.857900
H     0.786000   -2.439300   -3.277300
C     4.229400   -2.091700   -1.433300
C    -2.387500   -6.322000    2.341900
H    -2.540800   -4.964900    0.884100
C    -0.945500   -5.683700    4.116700
H    -0.114800   -3.891200    3.876700
C     1.579300   -0.267400   -5.515400
H     0.782700    1.543000   -5.456200
H     2.117600   -2.172900   -5.134700
C     4.290000   -3.111000   -2.379800
C     5.405000   -1.706800   -0.816000
C    -1.793000   -6.599800    3.544100
H    -2.886000   -6.891200    1.988000
H    -0.543100   -5.806200    5.006400
H     2.041300   -0.203900   -6.332500
C     5.491400   -3.747400   -2.656700
H     3.484500   -3.421700   -2.834200
C     6.616900   -2.321900   -1.108400
H     5.432900   -1.063700   -0.154000
H    -1.999300   -7.414600    4.018500
C     6.647100   -3.345600   -2.022600
H     5.512300   -4.400500   -3.300700
H     7.381000   -2.043200   -0.654100
H     7.464700   -3.740700   -2.239200

QM/MM links (counting starts at zero)
  1   78
  8   84
 13   90
 18  111
 21  112
 29  121
