75
QM: 44 at, MM: 31 at, Links: 4
Fe    3.842000   17.774800    5.889100
O     4.092000   19.402800    4.864500
O     4.982300   16.870800    4.505000
O     2.106300   17.434900    5.104000
O     3.938100   16.036400    6.923300
O     0.197200   16.521200    3.541400
O     4.024500   20.921000    2.722200
N     2.800700   18.579000    7.589800
N     5.575700   18.394800    6.994600
C     0.549400   17.960100    6.856200
C     0.877700   17.460700    5.582900
C     5.614600   15.768300    4.566400
C     5.221800   19.978300    4.514600
C    -0.182000   16.969700    4.774000
C     6.418000   19.872100    5.252400
C     5.512200   14.847800    5.614100
H     6.038300   14.058200    5.566800
C    -0.790300   17.932300    7.318600
H    -0.998900   18.270200    8.181500
C     1.530900   18.502000    7.769200
H     1.200000   18.838800    8.593600
C     6.473800   19.182300    6.521500
H     7.246600   19.324800    7.055600
C     4.686800   15.017400    6.722300
C     5.226900   20.824100    3.367700
C     6.380200   21.481900    2.979800
H     6.372300   22.026000    2.201000
C     7.576000   20.576400    4.844800
H     8.373600   20.507400    5.356100
C     5.797800   17.880200    8.353500
H     6.583700   18.332100    8.751300
H     5.992500   16.910500    8.309500
C     3.574100   19.139600    8.712200
H     2.956100   19.411200    9.436400
H     4.062700   19.944900    8.407300
C     4.568000   18.113200    9.248700
H     4.097000   17.250900    9.368900
H     4.878500   18.410900   10.140400
C    -1.484600   16.950100    5.249000
H    -2.181200   16.612400    4.698300
C     7.556600   21.354000    3.722900
H     8.343900   21.808500    3.446600
C    -1.782400   17.422300    6.531300
H    -2.675100   17.388600    6.854800
C     6.534800   15.466700    3.422900
H     6.013400   15.382800    2.597100
H     7.008100   14.626300    3.596800
H     7.184900   16.193600    3.325800
C     3.904100   21.947400    1.710600
H     4.436600   21.703000    0.912600
H     4.241300   22.810400    2.059600
C    -0.846100   16.089400    2.660500
H    -1.465200   16.838200    2.470700
H    -1.361600   15.353300    3.076000
C    -0.200100   15.617800    1.392700
H    -0.890600   15.308300    0.769800
H     0.413000   14.880000    1.593300
H     0.299400   16.356300    0.986200
C     4.659400   13.952600    7.784700
H     5.155200   14.262800    8.571100
H     5.074400   13.135000    7.438700
H     3.730900   13.766100    8.036600
C     2.456300   22.069800    1.346000
H     2.346500   22.778700    0.678100
H     1.935500   22.291200    2.146000
H     2.139900   21.219700    0.975000
O     2.326100   18.550000    2.455300
H     2.176100   18.077500    3.076400
H     2.803800   19.128500    2.747700
O    -0.027000   19.357700    1.312200
C    -0.805700   20.069100    2.247100
H    -1.660000   20.320000    1.837800
H    -0.326300   20.877700    2.524200
H    -0.972600   19.504000    3.030600
H     0.655700   19.146000    1.719400

QM/MM links (counting starts at zero)
  5   51
  6   48
 11   44
 23   58
