83
QM: 33 at, MM: 50 at, Links: 8
Fe   -5.570200    5.570200    6.672700
O    -7.415400    5.172900    8.935000
O    -3.764700    7.872800    6.378600
O    -6.651900    7.458300   10.102500
O    -4.746400    9.056700    8.598700
O    -5.941400    3.259900    8.435400
O    -3.705100    2.075100    7.563100
N    -6.557700    6.016200    8.267000
N    -4.646000    7.191100    7.186500
N    -5.104800    3.944500    7.594600
C    -6.173500    7.086200    8.898200
C    -6.192400    8.708000   10.545300
C    -5.292000    9.479200    9.826000
C    -5.133100    7.815200    8.211700
C    -4.054700    3.323200    7.172100
C    -2.451800    1.661100    7.089100
B    -7.357800    3.766600    8.393500
O    -5.172900    7.415400    4.410400
O    -7.872800    3.764700    6.966900
O    -7.458300    6.651900    3.242900
O    -9.056700    4.746400    4.746700
N    -6.016200    6.557700    5.078500
N    -7.191100    4.646000    6.158900
C    -7.086200    6.173500    4.447200
C    -8.708000    6.192400    2.800100
C    -9.479200    5.292000    3.519500
C    -7.815200    5.133100    5.133700
B    -3.766600    7.357800    4.952000
O    -3.259900    5.941400    4.910100
O    -2.075100    3.705100    5.782300
N    -3.944500    5.104800    5.750800
C    -3.323200    4.054700    6.173300
C    -1.661100    2.451800    6.256300
C    -6.704600    9.153500   11.752000
H    -7.330900    8.626900   12.235100
C    -6.285400   10.389400   12.248700
H    -6.613100   10.698400   13.083900
C    -5.393500   11.168000   11.528300
H    -5.117700   12.011000   11.869400
C    -4.897200   10.719500   10.301100
H    -4.296800   11.257800    9.798200
C    -8.223700    2.758700    9.273200
H    -7.862600    2.736100   10.195900
H    -9.157500    3.083900    9.320500
C    -8.208300    1.342000    8.687400
H    -8.621400    1.375800    7.788400
H    -7.264400    1.067800    8.567800
C    -8.916700    0.261800    9.494200
H    -9.873100    0.497400    9.592700
H    -8.518400    0.211600   10.398800
C    -8.794300   -1.097200    8.807700
H    -9.287100   -1.081100    7.961900
H    -9.167500   -1.792300    9.389900
H    -7.849300   -1.290500    8.631800
C    -2.007000    0.420400    7.506000
H    -2.547800   -0.119600    8.071300
C    -0.761800   -0.027700    7.090200
H    -0.445300   -0.876200    7.374700
C    -9.153500    6.704600    1.593400
H    -8.626900    7.330900    1.110300
C   -10.389400    6.285400    1.096700
H   -10.698400    6.613100    0.261600
C   -11.168000    5.393500    1.817100
H   -12.011000    5.117700    1.476000
C   -10.719500    4.897200    3.044400
H   -11.257800    4.296800    3.547200
C    -2.758700    8.223700    4.072200
H    -2.736100    7.862600    3.149500
H    -3.083900    9.157500    4.025000
C    -1.342000    8.208300    4.658100
H    -1.375800    8.621400    5.557000
H    -1.067800    7.264400    4.777700
C    -0.261800    8.916700    3.851200
H    -0.497400    9.873100    3.752700
H    -0.211600    8.518400    2.946700
C     1.097200    8.794300    4.537700
H     1.081100    9.287100    5.383600
H     1.792300    9.167500    3.955600
H     1.290500    7.849300    4.713600
C    -0.420400    2.007000    5.839400
H     0.119600    2.547800    5.274100
C     0.027700    0.761800    6.255300
H     0.876200    0.445300    5.970800

QM/MM links (counting starts at zero)
 11   33
 12   39
 15   54
 16   41
 24   58
 25   64
 27   66
 32   79
