115
QM: 21 at, MM: 94 at, Links: 8
Fe    2.682100    1.295700    8.155100
O     0.045100    0.608900    7.147500
O     1.905300   -0.565900    6.066100
O     1.469100    1.784100    5.536800
O     3.163400    2.650200   10.688100
O     4.491900    0.614900   10.354800
O     5.051900    2.664600    9.115900
N     0.782600    1.133100    8.188200
N     2.669400   -0.336200    7.180100
N     2.427000    2.154200    6.460600
N     2.239200    2.240800    9.747600
N     3.750600    0.164600    9.279400
N     4.205000    2.434600    8.063900
C     0.114000    1.735900    9.126800
C     0.981700    2.316100   10.114000
C     3.276600   -1.376400    7.682300
C     3.977500   -1.058400    8.892500
C     3.347500    2.979500    6.032100
C     4.349400    3.213400    7.025100
B     0.840800    0.470000    5.889300
B     4.530000    2.110000   10.405500
O    -2.718800    2.679700    2.810300
H    -3.495000    3.033700    2.571700
O    -3.653800    1.038500    1.610900
O     7.304200    6.382900   13.931000
H     7.252200    7.269300   14.080200
O     6.028200    6.819100   12.142300
C    -1.371100    1.849700    9.223900
H    -1.751000    0.983500    9.515400
H    -1.745100    2.065200    8.333800
C    -1.759100    2.938000   10.216900
H    -1.547800    3.824300    9.831100
H    -2.733800    2.898900   10.381200
C    -1.024800    2.774500   11.525600
H    -1.213000    1.874500   11.892800
H    -1.363400    3.443700   12.171400
C     0.493200    2.947000   11.372700
H     0.715500    3.911500   11.365600
H     0.949800    2.534800   12.147100
C     3.256900   -2.748200    7.102200
H     3.265500   -2.689600    6.113600
H     2.425400   -3.211100    7.375100
C     4.464200   -3.549900    7.575200
H     4.340500   -4.499700    7.322300
H     5.274900   -3.217900    7.113700
C     4.670500   -3.460800    9.043900
H     5.447700   -4.020400    9.292500
H     3.874200   -3.828900    9.502500
C     4.911700   -2.030300    9.539700
H     4.787200   -1.999000   10.521200
H     5.845400   -1.768200    9.342500
C     3.417100    3.607100    4.680500
H     2.502500    3.806300    4.357600
H     3.839600    2.979800    4.041900
C     4.231000    4.899500    4.747700
H     4.381600    5.241600    3.830400
H     3.722100    5.582800    5.250600
C     5.571900    4.668200    5.424900
H     6.114700    5.494700    5.370600
H     6.060700    3.950200    4.950600
C     5.396100    4.276000    6.889400
H     6.256300    3.942500    7.249400
H     5.131500    5.072300    7.416600
C    -0.124300    0.016800    4.707700
C    -0.955900    0.910700    4.050500
H    -0.936600    1.826900    4.301900
C    -1.821000    0.507700    3.028900
C    -1.825400   -0.824200    2.637400
H    -2.398700   -1.109400    1.935900
C    -1.003000   -1.732100    3.264700
H    -1.005400   -2.641000    2.991800
C    -0.168500   -1.317600    4.296200
H     0.384400   -1.956500    4.732000
C    -2.798600    1.428900    2.403100
C     5.502300    2.634900   11.549900
C     5.623700    4.012000   11.748500
H     5.117000    4.602000   11.204200
C     6.466500    4.545900   12.722900
C     7.188200    3.685800   13.540100
H     7.748100    4.037700   14.221600
C     7.094600    2.317800   13.363000
H     7.600800    1.731900   13.913000
C     6.260500    1.800900   12.378600
H     6.203400    0.859200   12.265700
C     6.561000    6.028000   12.881500
O    -4.696900    4.187900    2.172000
N    -5.762800    2.740800    0.778700
H    -5.027900    2.294700    0.978700
C    -5.646100    3.970700    1.374400
C    -6.644800    4.931500    1.021500
H    -6.633000    5.793300    1.420200
C    -7.606600    4.618400    0.120000
H    -8.257500    5.270500   -0.110000
C    -7.659400    3.352400   -0.478600
H    -8.330400    3.143500   -1.117300
C    -6.729400    2.435500   -0.121400
H    -6.754700    1.567900   -0.505800
O     7.541100    8.935500   14.290800
N     8.236700   10.682400   15.559800
H     7.599100   11.117500   15.220300
C     8.331100    9.381100   15.184600
C     9.308500    8.607000   15.840400
H     9.417600    7.692300   15.607500
C    10.096200    9.154600   16.801900
H    10.744300    8.619100   17.243400
C     9.955900   10.518400   17.152000
H    10.510300   10.910600   17.816300
C     9.010500   11.252100   16.513300
H     8.890800   12.167400   16.737600
N     9.288600    6.905800    7.672300
C     8.515900    6.490600    8.409500
C     7.543100    6.003700    9.349700
H     7.298900    5.082900    9.119600
H     6.744900    6.571400    9.318200
H     7.923700    6.025900   10.252600

QM/MM links (counting starts at zero)
 13   27
 14   36
 15   39
 16   48
 17   51
 18   60
 19   63
 20   74
