79
QM: 61 at, MM: 18 at, Links: 2
Fe    4.464600    1.197400    3.086800
N     2.933000    0.373800    4.038700
N     4.760400    2.045300    4.806300
N     3.219600    2.593500    2.414400
N     4.034000    0.360200    1.389300
O     5.894200    2.064500    2.237400
O     5.561600   -0.209600    3.682700
O     7.362600   -4.690200    0.992800
O     9.792700    5.400900    4.291300
C     2.065500   -0.528700    3.578300
H     2.112600   -0.788500    2.666000
C     1.084600   -1.104600    4.402900
H     0.495200   -1.762500    4.051700
C     0.978500   -0.719200    5.697300
H     0.313700   -1.106700    6.255000
C     1.863000    0.266800    6.225300
C     1.845000    0.748700    7.550600
H     1.200500    0.416200    8.164000
C     2.745800    1.688400    7.956300
H     2.707900    2.009700    8.849700
C     3.732800    2.197600    7.087800
H     4.341800    2.863600    7.388000
C     3.803100    1.717000    5.798200
C     2.843100    0.775600    5.355600
C     5.777700    2.804400    5.106500
H     5.851700    3.107100    6.003400
C     6.786500    3.212100    4.184600
C     7.781400    4.087600    4.698300
H     7.745700    4.357000    5.608300
C     8.790400    4.546200    3.890400
C     8.837400    4.135100    2.550900
H     9.548600    4.433400    1.994400
C     7.873500    3.312300    2.032400
H     7.924800    3.056400    1.117600
C     6.801900    2.831100    2.824900
C     2.929400    3.768800    2.968500
H     3.356900    4.012400    3.781200
C     2.011300    4.661500    2.390700
H     1.826800    5.494600    2.809500
C     1.384100    4.324300    1.225600
H     0.741700    4.911100    0.843600
C     1.691600    3.099000    0.587300
C     1.149000    2.670000   -0.646600
H     0.511300    3.210200   -1.096300
C     1.540800    1.478900   -1.191200
H     1.175800    1.209800   -2.026500
C     2.464600    0.643800   -0.551700
H     2.692700   -0.195100   -0.932500
C     3.044100    1.044700    0.632400
C     2.632400    2.261800    1.218500
C     4.619400   -0.709000    0.919500
H     4.395600   -0.976900    0.036800
C     5.560200   -1.498700    1.617100
C     6.021100   -2.668000    0.956300
H     5.719400   -2.855300    0.074700
C     6.890800   -3.526000    1.561400
C     7.356000   -3.239500    2.854600
H     7.988900   -3.814700    3.267500
C     6.900600   -2.129400    3.526100
H     7.217500   -1.963000    4.406500
C     5.981600   -1.232200    2.951900
C     6.664500   -5.129500   -0.159000
H     5.714600   -5.237600    0.055800
H     7.032300   -5.987700   -0.456800
H     6.764000   -4.467200   -0.874400
C     9.608500    6.035800    5.557300
H     8.748000    6.504600    5.564400
H    10.332000    6.678500    5.709200
H     9.617700    5.359000    6.265600
N     5.176500    8.486800    1.320500
C     6.390200    6.958100    3.040900
H     7.151600    7.441400    3.421700
H     6.708800    6.148400    2.588800
H     5.769100    6.709200    3.757500
C     5.701200    7.815400    2.075100
Cl    4.081300    5.648300    5.570300
O    13.534700    7.592200    3.928300
H    14.230800    7.169100    4.287800
H    13.163900    8.068800    4.521600

QM/MM links (counting starts at zero)
  7   61
  8   65
