86
QM: 13 at, MM: 73 at, Links: 0
Fe   -2.353500    3.019600    7.538300
C    -1.183200    4.316600    8.280600
C    -0.871500    2.114000    6.735500
C    -2.162900    1.915600    9.086000
N    -0.499500    5.120800    8.741000
N     0.012300    1.545900    6.259700
N    -2.048900    1.233000   10.009100
C    -3.523700    1.722500    6.796100
C    -3.835400    3.925200    8.341200
C    -2.544000    4.123500    5.990700
N    -4.207500    0.918300    6.335700
N    -4.719200    4.493200    8.817000
N    -2.658000    4.806200    5.067600
C     1.405500    0.145900    9.253600
H     0.485000    0.219100    9.142500
C     1.993700   -1.082000    9.194700
H     1.475800   -1.839800    9.046000
C     3.366500   -1.198900    9.357800
C     4.093600   -0.038000    9.558200
H     5.016100   -0.082600    9.665700
C     3.463200    1.166400    9.598300
H     3.961600    1.942800    9.716900
C     1.469800    2.569400    9.653200
H     0.570800    2.534100    9.291800
H     1.963200    3.250900    9.171200
C     1.414400    2.922100   11.110600
C     2.145400    3.956500   11.613600
H     2.686000    4.455600   11.043700
C     2.094900    4.275000   12.956900
H     2.591600    4.991100   13.282600
C     1.322700    3.547000   13.804200
H     1.291400    3.758200   14.708800
C     0.592600    2.502900   13.314200
H     0.063500    1.996800   13.887100
C     0.640300    2.199300   11.978400
H     0.135300    1.487900   11.655800
C     4.071800   -2.471200    9.341400
H     4.989500   -2.488200    9.493800
N     2.133000    1.247600    9.469800
N     3.458300   -3.551300    9.124100
O     4.308700   -4.636400    9.159100
H     3.901500   -5.311100    8.931400
C    -2.569400    4.431500   11.646700
H    -2.335700    4.353700   10.751200
C    -2.982000    3.330600   12.320700
H    -3.015500    2.508400   11.886500
C    -3.352800    3.423600   13.648300
C    -3.266400    4.649600   14.236800
H    -3.480900    4.748000   15.137000
C    -2.868400    5.725200   13.514700
H    -2.855000    6.565900   13.912800
C    -2.155400    6.790100   11.395000
H    -2.979100    7.210800   11.101000
H    -1.674300    6.498400   10.604900
C    -1.316200    7.815100   12.129200
C    -0.040700    7.610500   12.485000
H     0.355000    6.781400   12.337300
C     0.675800    8.606900   13.062400
H     1.548200    8.434000   13.335300
C     0.164500    9.844800   13.252400
H     0.680900   10.532300   13.606700
C    -1.124800   10.038300   12.907200
H    -1.515900   10.870800   13.045900
C    -1.866800    9.026800   12.353800
H    -2.757100    9.178300   12.130700
C    -3.790900    2.230700   14.356000
H    -3.898200    1.435300   13.885600
N    -2.492800    5.594000   12.225100
N    -4.023700    2.256000   15.576600
O    -4.426300    1.027500   16.065700
H    -4.412600    1.042000   16.885900
O     3.650100    6.812300   10.023900
H     3.965600    6.143500    9.603900
H     2.859000    6.965500    9.754600
O     4.007000    7.375700   12.706600
H     3.870700    7.302600   11.866900
H     3.989600    8.201800   12.920700
O    -2.611900    7.274100    7.707200
H    -1.979700    6.721600    7.577500
H    -3.312500    6.908200    7.916800
O    -3.676700    8.615900    5.585900
H    -3.272500    8.167200    6.181400
H    -3.444400    9.431800    5.653800
O    -3.003800    7.021600    3.525100
H    -2.740600    6.352700    3.980200
H    -3.181800    7.663900    4.040600

QM/MM links (counting starts at zero)
