113
QM: 21 at, MM: 92 at, Links: 10
C    -1.394500    2.418100   22.904700
C     0.355400    5.295000   23.256100
C     1.391000    6.084600   22.491100
C    -0.602900    3.798000   18.349800
C     0.678700    2.977500   18.322200
C     2.998700    1.900000   20.535300
N    -2.379500    1.648700   23.436400
N    -1.028400    3.506100   23.497600
N    -0.089300    4.210000   22.741600
N     1.629300    5.338200   21.156600
H     2.491200    5.062000   21.245600
N    -0.716300    4.433700   19.744300
H    -1.522900    4.133600   20.040100
N     1.321500    2.859400   19.414100
N     2.487700    2.091100   19.358100
N     4.126900    1.152300   20.631900
S    -0.759600    1.835400   21.359400
S     2.360100    2.544700   22.043900
Fe    0.622100    3.563400   21.069000
H     4.426100    0.979400   21.456200
H    -2.541300    0.765500   23.067200
C    -4.372300    1.538800   24.812600
H    -4.734200    1.768500   25.670800
H    -4.418700    0.586900   24.691600
H    -4.880300    1.974600   24.124800
C    -2.991900    1.968700   24.738700
H    -2.486000    1.534900   25.444500
H    -2.949000    2.926500   24.884300
C     1.690500    6.142700   19.893800
H     2.023600    5.576300   19.179700
H     2.327900    6.863800   20.015500
C     0.367700    6.733500   19.463400
H     0.382900    6.852100   18.500800
H     0.279100    7.611700   19.863100
C    -0.856700    5.912100   19.829300
H    -1.112300    6.139600   20.736900
H    -1.585100    6.180800   19.246900
C     4.752800    0.545700   19.455300
H     5.054400    1.240500   18.850300
H     4.104800   -0.003900   18.987000
C     5.935000   -0.310100   19.880600
H     6.337000   -0.708600   19.105800
H     5.634000   -0.999100   20.477000
H     6.582300    0.239500   20.329100
C    -0.124800    5.813000   24.591900
H    -0.778100    5.209200   24.953800
H    -0.520800    6.679300   24.476500
H     0.618600    5.878500   25.195800
C     0.930300    7.562600   22.350900
H     1.592100    8.059200   21.864000
H     0.818800    7.947300   23.224000
H     0.095500    7.594000   21.877400
C     2.726800    6.078700   23.244600
H     3.374500    6.589100   22.753500
H     3.036700    5.173900   23.340500
H     2.607000    6.467400   24.113600
C    -0.545100    4.834300   17.176100
H    -1.344500    5.366200   17.178800
H    -0.473300    4.367200   16.340800
H     0.219300    5.403500   17.290900
C    -1.835700    2.910800   18.126200
H    -2.625600    3.456500   18.115400
H    -1.900800    2.267000   18.836900
H    -1.753000    2.451500   17.286400
C     1.102500    2.312200   17.045300
H     1.923700    1.835200   17.190000
H     1.234900    2.977500   16.365500
H     0.421200    1.697800   16.762100
C    -5.438900    9.260400   19.082700
C    -6.136300    9.460600   20.299800
H    -6.016500    8.856100   20.996800
C    -6.988500   10.528400   20.476600
H    -7.423700   10.630400   21.292600
C    -7.212400   11.455400   19.469400
H    -7.807800   12.159400   19.589700
C    -6.517000   11.297800   18.271100
H    -6.626100   11.918000   17.586600
C    -5.671800   10.227300   18.098200
H    -5.231900   10.141700   17.284100
C    -2.981600    8.668800   18.337700
C    -2.228200    8.336700   17.195600
H    -2.583500    7.735300   16.582800
C    -0.971000    8.879600   16.953600
H    -0.503700    8.622500   16.193000
C    -0.401500    9.790300   17.813200
H     0.449600   10.131900   17.653800
C    -1.133800   10.186800   18.924100
H    -0.782100   10.814900   19.515800
C    -2.387100    9.649000   19.149700
H    -2.867300    9.955200   19.885500
C    -4.184400    7.013000   20.056500
C    -4.443200    5.637100   20.067700
H    -4.854900    5.258300   19.325300
C    -4.109600    4.801000   21.147000
H    -4.272800    3.886300   21.102200
C    -3.530200    5.358400   22.287400
H    -3.285700    4.816700   23.002200
C    -3.326200    6.710700   22.341700
H    -2.967800    7.097400   23.107500
C    -3.654200    7.511600   21.248000
H    -3.512400    8.428200   21.315000
C    -5.081400    7.117800   17.508900
C    -6.354600    7.348600   16.939800
H    -6.867700    8.051300   17.268500
C    -6.873500    6.569400   15.909300
H    -7.722600    6.753900   15.576800
C    -6.145700    5.531100   15.377400
H    -6.483100    5.022800   14.676100
C    -4.897400    5.264200   15.915100
H    -4.391100    4.561500   15.572300
C    -4.395000    6.023800   16.948900
H    -3.559100    5.803900   17.293100
B    -4.450800    7.998300   18.737000

QM/MM links (counting starts at zero)
  1   44
  2   48
  2   52
  3   56
  3   60
  4   64
  6   25
  9   28
 11   34
 15   37
