94
QM: 52 at, MM: 42 at, Links: 6
Fe   -0.981300    3.726100    3.243700
O    -2.463600    4.855300    3.633200
C    -2.849000    6.122900    3.473300
C    -4.207400    6.492800    3.681700
C    -4.566600    7.820300    3.431000
H    -5.455100    8.072100    3.539300
C    -3.649700    8.769100    3.028800
C    -2.321900    8.418500    2.879600
H    -1.698800    9.057200    2.619200
C    -1.918500    7.106600    3.118800
C    -0.439100    6.823300    3.112800
H     0.013100    7.594700    2.737400
H    -0.145400    6.736000    4.032600
N     0.010500    5.615700    2.367900
C    -0.396200    5.698400    0.950200
H     0.211100    6.281600    0.468700
H    -1.288300    6.073700    0.887000
C    -0.376900    4.318500    0.328100
H    -0.657200    4.372500   -0.598500
H     0.523800    3.959100    0.353400
N    -1.296400    3.423700    1.078800
C    -0.941200    2.024900    0.735400
H    -0.022400    1.864900    1.000900
H    -0.990800    1.921000   -0.227900
C    -1.818600    0.977400    1.378800
C    -2.211300   -0.101400    0.593100
H    -2.035200   -0.099500   -0.320200
C    -2.858700   -1.167900    1.161700
C    -3.117600   -1.163000    2.517900
H    -3.510000   -1.914700    2.899000
C    -2.818700   -0.089700    3.330200
C    -2.171800    1.029300    2.744200
O    -1.893800    2.102000    3.478600
O    -3.963100   10.082800    2.754900
O    -3.257300   -2.296200    0.465300
N    -0.227400    4.083700    5.241500
C    -0.784400    4.750800    6.243900
H    -1.602100    5.173700    6.106600
C    -0.180600    4.835300    7.498300
H    -0.586600    5.318600    8.182000
C     1.001100    4.208700    7.717600
H     1.401800    4.262000    8.555500
C     1.630100    3.476400    6.688400
C     2.821100    2.768100    6.808900
H     3.271300    2.750600    7.620900
C     3.324500    2.099500    5.735900
H     4.123500    1.633100    5.831100
C     2.678500    2.093400    4.492700
H     3.051700    1.624400    3.781600
C     1.491800    2.776500    4.313400
C     0.958600    3.459200    5.445100
O     0.824200    2.850400    3.177900
C    -5.241400    5.490700    4.204100
C    -5.407900    4.323400    3.224900
H    -4.565100    3.878000    3.112400
H    -5.708400    4.657500    2.376900
H    -6.053400    3.704700    3.572500
C    -4.786700    4.944700    5.566900
H    -4.717100    5.668200    6.194500
H    -3.930200    4.521100    5.472000
H    -5.426600    4.304700    5.885900
C    -6.612300    6.124600    4.417700
H    -7.185200    5.501500    4.872000
H    -6.995200    6.352100    3.568200
H    -6.518700    6.917700    4.949900
C    -5.275100   10.512000    3.064800
H    -5.893400   10.126100    2.440300
H    -5.319600   11.470400    3.008600
H    -5.501200   10.233600    3.954700
C     1.486800    5.597600    2.464800
H     1.825400    4.798900    2.052300
H     1.747500    5.616400    3.389300
H     1.846600    6.366900    2.016300
C    -2.691500    3.688300    0.692900
H    -3.256400    2.994200    1.039900
H    -2.760300    3.707400   -0.263900
H    -2.967300    4.534600    1.051400
C    -3.535100   -2.155600   -0.855300
H    -4.354900   -1.666400   -0.960600
H    -3.626300   -3.022500   -1.257700
H    -2.821400   -1.678900   -1.283600
C    -3.162100   -0.113400    4.821800
C    -1.902500    0.052500    5.657000
H    -1.356000    0.743400    5.277300
H    -1.414000   -0.774000    5.666700
H    -2.143500    0.293000    6.555100
C    -4.139200    1.011400    5.121500
H    -4.906400    0.929300    4.551800
H    -3.713800    1.856600    4.964300
H    -4.416600    0.958300    6.040200
C    -3.800400   -1.437800    5.245500
H    -4.203800   -1.336700    6.110900
H    -3.126800   -2.119900    5.283000
H    -4.473600   -1.686500    4.606600

QM/MM links (counting starts at zero)
  3   52
 13   69
 20   73
 30   81
 33   65
 34   77
