77
QM: 63 at, MM: 14 at, Links: 2
Fe    0.000000    0.000000    0.000000
S    -0.543400    4.676600   -1.410700
N    -0.671300   -1.312200   -1.359600
H    -0.076100   -1.374100   -2.045300
H    -0.751400   -2.134400   -0.978300
N    -1.833400    0.790600   -0.190500
N     0.924900    4.885500   -6.382800
N    -0.464700    7.788000   -3.575400
N     0.552400    1.237100   -1.384600
N     2.896000    2.668100   -4.651200
C    -1.964500   -0.881600   -1.871300
C    -2.603600   -1.482400   -2.903100
H    -2.198100   -2.218300   -3.346200
C    -3.860300   -1.023000   -3.319100
H    -4.296800   -1.438400   -4.053800
C    -4.461300    0.021500   -2.671800
H    -5.323800    0.310000   -2.946200
C    -3.823000    0.667300   -1.614200
C    -4.368300    1.750300   -0.868700
H    -5.232600    2.085100   -1.078200
C    -3.655300    2.301200    0.136500
H    -4.015800    3.022300    0.639500
C    -2.382500    1.803100    0.432700
H    -1.888200    2.223600    1.126200
C    -2.552100    0.220100   -1.216500
C     0.672700    5.084900   -5.283600
C    -0.127300    6.704300   -3.701000
C     0.747100    2.130300   -2.087700
C     2.040100    2.936800   -3.934000
C     0.307600    4.419400   -2.928900
C     0.293300    5.365900   -3.934000
C     1.022100    3.196100   -2.990400
S     0.543400   -4.676600    1.410700
N     0.671300    1.312200    1.359600
H     0.076100    1.374100    2.045300
H     0.751400    2.134400    0.978300
N     1.833400   -0.790600    0.190500
N    -0.924900   -4.885500    6.382800
N     0.464700   -7.788000    3.575400
N    -0.552400   -1.237100    1.384600
N    -2.896000   -2.668100    4.651200
C     1.964500    0.881600    1.871300
C     2.603600    1.482400    2.903100
H     2.198100    2.218300    3.346200
C     3.860300    1.023000    3.319100
H     4.296800    1.438400    4.053800
C     4.461300   -0.021500    2.671800
H     5.323800   -0.310000    2.946200
C     3.823000   -0.667300    1.614200
C     4.368300   -1.750300    0.868700
H     5.232600   -2.085100    1.078200
C     3.655300   -2.301200   -0.136500
H     4.015800   -3.022300   -0.639500
C     2.382500   -1.803100   -0.432700
H     1.888200   -2.223600   -1.126200
C     2.552100   -0.220100    1.216500
C    -0.672700   -5.084900    5.283600
C     0.127300   -6.704300    3.701000
C    -0.747100   -2.130300    2.087700
C    -2.040100   -2.936800    3.934000
C    -0.307600   -4.419400    2.928900
C    -0.293300   -5.365900    3.934000
C    -1.022100   -3.196100    2.990400
C    -2.205300    5.230500   -1.907100
H    -2.784200    5.266700   -1.105200
H    -2.141000    6.147600   -2.274800
C    -2.848000    4.336100   -2.934700
H    -3.736000    4.684200   -3.160700
H    -2.291800    4.311900   -3.741000
H    -2.935400    3.430400   -2.570600
C     2.205300   -5.230500    1.907100
H     2.784200   -5.266700    1.105200
H     2.141000   -6.147600    2.274800
C     2.848000   -4.336100    2.934700
H     3.736000   -4.684200    3.160700
H     2.291800   -4.311900    3.741000
H     2.935400   -3.430400    2.570600

QM/MM links (counting starts at zero)
  1   63
 32   70
