109
QM: 51 at, MM: 58 at, Links: 0
Fe   -1.465000    7.978700    3.679800
N    -0.110800    8.239600    6.469100
H     0.487700    9.053300    6.182500
N    -0.961100    7.702700    5.591100
N    -2.749500    6.640600    4.228800
N    -2.473200    7.737600    2.008400
N    -2.442200    8.216300    0.758500
H    -1.727700    8.857500    0.411600
N    -3.479400    9.882800    5.060400
H    -4.154700    9.175700    5.388700
N    -2.475400    9.591200    4.228000
N    -0.342700    9.375400    2.951200
N     0.065100    6.917100    2.956600
N     0.481800    5.650300    2.933100
H     0.013700    4.902600    3.486400
C    -0.295800    7.727800    7.705300
H     0.312900    8.074600    8.521000
C    -1.317600    6.800400    7.630300
H    -1.730100    6.221700    8.427500
C    -1.708300    6.822700    6.285000
C    -2.766300    6.195400    5.506000
C    -3.742500    5.317100    5.946500
H    -3.753500    4.998700    6.977800
C    -4.702800    4.881600    5.038900
H    -5.475700    4.197900    5.344500
C    -4.682000    5.346000    3.718200
H    -5.424100    5.016100    3.009200
C    -3.691900    6.235300    3.349500
C    -3.497800    6.868700    2.061000
C    -4.137500    6.797100    0.804500
H    -4.960500    6.197100    0.518200
C    -3.428400    7.673500    0.004600
H    -3.528500    7.960000   -1.023300
C    -3.564500   11.211900    5.267400
H    -4.312400   11.649900    5.880700
C    -2.551300   11.829000    4.541200
H    -2.359200   12.873200    4.480200
C    -1.900200   10.763600    3.907600
C    -0.742100   10.657200    3.048900
C    -0.095900   11.673500    2.353100
H    -0.458200   12.698100    2.420500
C     0.998200   11.341300    1.568900
H     1.523400   12.092700    0.998700
C     1.413600   10.018400    1.474900
H     2.274000    9.748700    0.870800
C     0.715700    9.051100    2.188800
C     0.967800    7.628300    2.236700
C     1.977600    6.786900    1.752400
H     2.822900    7.063800    1.184000
C     1.635800    5.530300    2.228000
H     2.117300    4.581400    2.127000
N     6.473800   13.138300    1.139200
O     3.995800    9.368500    3.142400
O     3.171500   11.144600    4.236900
O     7.306100   13.914400    0.506900
C     3.882200   10.625200    3.373600
C     4.734800   11.494400    2.520500
C     5.670900   10.959500    1.649100
H     5.747400    9.900400    1.523500
C     4.654600   12.880100    2.640400
H     3.927500   13.319800    3.294600
C     5.525600   13.683500    1.940700
H     5.534600   14.758900    1.961300
C     6.544100   11.794200    0.970000
H     7.321600   11.451300    0.303400
N     1.731000    4.768000    8.346000
O     4.596000    8.255600    6.200700
O     2.958300    7.848900    4.713400
H     3.460300    8.644300    3.968600
O     1.145500    3.917200    9.140200
C     3.572700    7.672400    5.817900
C     2.940500    6.643500    6.706900
C     3.290000    6.540600    8.044700
H     4.049400    7.191100    8.473400
C     1.981600    5.766500    6.209500
H     1.681800    5.806200    5.169000
C     1.390900    4.833900    7.030300
H     0.644100    4.118400    6.697400
C     2.680900    5.606800    8.849800
H     2.889000    5.476900    9.903400
N    -0.569600   11.760800   -6.445700
O    -2.913100    9.348100   -2.772800
O    -4.239100    8.998100   -4.523900
O     0.206000   12.527200   -7.188200
C    -3.204700    9.478800   -3.981900
C    -2.270700   10.276800   -4.851200
C    -2.474200   10.366900   -6.223600
H    -3.314300    9.879500   -6.702300
C    -1.179900   10.941900   -4.307500
H    -0.963400   10.911600   -3.256900
C    -0.340200   11.677300   -5.110600
H     0.516300   12.252600   -4.767200
C    -1.606500   11.105900   -7.012600
H    -1.722500   11.212700   -8.073300
O    -2.029100   14.394300    6.972100
H    -2.861100   13.997700    7.210700
H    -1.339600   13.716600    7.082800
O    -2.448600   15.431100    4.460700
H    -2.270300   15.092000    5.351000
H    -3.382800   15.676600    4.462200
O     1.114400   10.493000    5.854500
H     0.808000   11.290300    6.318600
H     1.828700   10.693800    5.249300
O    -1.063800    9.918200   -0.862400
H    -1.636600    9.735400   -1.612000
H    -0.167300    9.941900   -1.211900
O     8.999200   15.297300    2.100700
H     8.386100   14.805600    1.539900
H     8.580400   15.355000    2.956800

QM/MM links (counting starts at zero)
