76
QM: 61 at, MM: 15 at, Links: 0
I     2.724100    4.830400   10.420000
I    10.040000   13.971800    6.231900
Fe    6.970800    6.931900    4.541000
O     7.110600    6.588400    6.206200
O     6.466100    8.834600    5.245600
N     5.037100    6.566400    4.726900
N     8.935400    7.275900    4.339300
N     7.643800    5.012400    3.647200
C     9.429800    8.474300    4.716000
H    10.365400    8.544600    4.660700
C     9.036800    4.821800    3.418500
C     6.067100    6.200600    7.071600
C     4.704400    6.110900    6.811600
C     3.824200    5.753000    7.826300
H     2.903300    5.692800    7.650600
C     4.308100    5.485000    9.102200
C     5.670300    5.573400    9.362200
H     5.996900    5.391900   10.224100
C     6.550300    5.931000    8.346300
H     7.471100    5.991200    8.522100
C     9.777400    6.041900    3.789200
C     7.218700    7.516400    0.493500
H     7.826100    7.694800   -0.201000
C     5.862100    7.395000    0.216700
H     5.553200    7.489900   -0.666800
C     4.963700    7.131200    1.243400
C     5.421400    6.990400    2.548200
N     6.778300    7.112100    2.826200
C     7.676400    7.375500    1.798300
H     8.593200    7.457500    1.986100
C     4.421200    6.692900    3.517200
C     3.020100    6.495200    3.330600
H     2.430100    6.209800    4.003400
C     3.614900    7.034200    1.215700
H     3.239000    7.197700    0.370700
C     8.731600    9.728100    5.211900
C     4.287200    6.369300    5.740400
H     3.356100    6.434500    5.627200
C     7.265000    9.897200    5.422600
C     8.837500   12.220700    5.880000
C     6.679400   11.202300    5.863100
H     5.749400   11.244400    5.991900
C    11.839800    4.674600    3.061000
H    12.775600    4.682300    2.974300
C    11.167800    5.915900    3.583400
H    11.710400    6.656100    3.785600
C     9.468600   10.926400    5.468300
H    10.404000   10.900800    5.370800
C     7.428200   12.369300    6.096600
H     7.036500   13.178800    6.371100
C     9.733100    3.570400    2.862400
C     6.940500    3.896300    3.278800
H     6.008800    3.926800    3.398000
C     8.910300    2.416600    2.480800
H     9.273300    1.624800    2.128100
C    11.126300    3.462000    2.680600
H    11.549300    2.691200    2.348400
C     7.518700    2.602300    2.691400
H     6.930500    1.907000    2.463900
C     2.693100    6.745100    2.188300
H     1.780100    6.738300    1.963200
S     5.551500    3.323700   -0.180600
S     3.262800    2.352200    1.154300
F     5.676200    0.783300   -1.669500
F     3.331300    3.272200    3.723000
F     7.226000    1.229600   -0.449000
F     4.092200    1.146000    2.896100
O     6.604400    4.191400    0.278100
O     2.218400    3.367700    1.272300
F     1.949700    1.674700    3.248700
O     3.139500    0.993000    0.340600
O     4.744700    3.684200   -1.060400
F     7.316700    2.018800   -2.193100
N     4.737300    2.900500    1.053200
C     6.481200    1.762800   -1.167600
C     3.171000    2.131100    2.849100

QM/MM links (counting starts at zero)
