81
QM: 41 at, MM: 40 at, Links: 1
Fe    0.770300    4.551500   13.719400
Cl   -0.125000    6.091700   12.174500
Cl    0.828500    6.078200   15.451000
O     2.567700    4.602600   13.205800
O     5.187700    4.818700   13.730500
H     4.538800    5.302400   13.957600
N     0.503000    2.996400   12.237700
N     1.159000    3.069800   15.273800
N    -1.264800    3.659500   14.125600
C     3.356800    3.662200   12.672600
C     4.735000    3.783200   12.958500
C     5.632000    2.859100   12.470800
H     6.558600    2.950200   12.660900
C     5.182100    1.795100   11.700500
H     5.800800    1.146900   11.386000
C     3.853000    1.674200   11.392800
H     3.565800    0.952600   10.846200
C     2.902400    2.599600   11.868700
C     1.493200    2.432400   11.486900
C     1.155100    1.705400   10.348300
H     1.842400    1.360300    9.790000
C    -0.164100    1.479800   10.023700
H    -0.387400    0.966200    9.256800
C    -1.158500    2.007100   10.826000
H    -2.074800    1.849500   10.634300
C    -0.784100    2.764000   11.907400
C    -1.830300    3.397300   12.782000
H    -2.134700    4.246600   12.375000
H    -2.610600    2.793900   12.859300
C    -1.088300    2.372600   14.850600
H    -0.984500    1.640200   14.193000
H    -1.898800    2.187800   15.387100
C     0.103300    2.395700   15.753800
C     0.144400    1.725800   16.959600
H    -0.623400    1.274600   17.289300
C     1.328100    1.724400   17.677800
H     1.377700    1.278700   18.515300
C     2.430400    2.368600   17.173200
H     3.256900    2.356300   17.639100
C     2.305300    3.034400   15.975800
H     3.064500    3.489700   15.627600
O    -3.303500    1.978600   17.947900
H    -3.187600    2.560200   17.353200
O    -3.971300    0.146800   19.766500
H    -3.231600    0.493300   19.569800
N    -3.954400    3.448900   15.942600
C    -2.102800    4.646100   14.894300
H    -2.002400    5.536200   14.472200
H    -1.741200    4.712700   15.814300
C    -3.580800    4.325400   14.986800
C    -4.491800    4.939600   14.147600
H    -4.202000    5.548400   13.479900
C    -5.838800    4.648800   14.305700
H    -6.486000    5.071400   13.754100
C    -6.231400    3.743800   15.266000
H    -7.152200    3.534500   15.375300
C    -5.268200    3.132300   16.081700
C    -5.601300    2.140300   17.139600
C    -4.614000    1.614400   17.977100
C    -4.938900    0.650900   18.950900
C    -6.219500    0.205200   19.088800
H    -6.432700   -0.441600   19.749800
C    -7.204100    0.703900   18.253000
H    -8.094500    0.377800   18.325300
C    -6.903200    1.672800   17.309500
H    -7.598600    2.026100   16.766200
O     4.051100    7.316300   13.969300
C     4.433300    6.699400   16.418100
H     3.838700    5.922100   16.365900
H     4.472900    7.020100   17.343100
H     5.331900    6.442500   16.122100
C     3.911800    7.782400   15.538500
H     4.428000    8.614100   15.689900
H     2.962400    7.961800   15.753800
C     3.280900    8.065100   13.427800
H     3.522900    9.016300   13.560600
H     2.344400    7.912900   13.713700
C     3.557400    7.555500   11.883900
H     4.498600    7.302700   11.788000
H     3.348400    8.279800   11.258200
H     2.988800    6.780900   11.688800

QM/MM links (counting starts at zero)
  8   46
