81
QM: 20 at, MM: 61 at, Links: 7
Fe   10.808200   12.181400    6.480400
H     9.705700   11.296400    5.545300
H    11.681600   13.029000    7.179200
P    12.500000   11.687900    5.166300
P     9.269700   13.117400    7.756500
N    10.506800   13.858000    5.198900
N    11.490800    9.989600    8.342600
C    11.172700   10.842800    7.588300
C     8.860200   14.680000    6.860500
H     8.053200   14.551300    6.301900
H     8.680500   15.407100    7.508000
C    10.052000   15.040800    5.984800
H     9.798400   15.770900    5.366100
H    10.794500   15.364600    6.554000
C    11.795200   14.248600    4.561100
H    12.389400   14.650800    5.243200
H    11.622400   14.931800    3.865800
C    12.491400   13.054200    3.929700
H    13.418900   13.293500    3.679500
H    12.009400   12.771500    3.112500
C    11.462700    8.681900    8.980200
C    12.832700    8.028300    8.818500
H    13.040400    7.936500    7.865200
H    12.823600    7.142500    9.237600
H    13.513800    8.586300    9.248900
C    10.387200    7.839600    8.299800
H     9.516000    8.276600    8.403200
H    10.358200    6.951300    8.712600
H    10.596600    7.750300    7.346600
C    11.155200    8.884800   10.454000
H    11.835200    9.467900   10.852300
H    11.159600    8.018300   10.911200
H    10.272700    9.300300   10.549400
C     7.583600   12.354700    7.938200
H     7.255700   12.197900    7.006700
C     7.616700   10.991800    8.595200
H     8.298100   10.437000    8.161800
H     6.739900   10.564200    8.504100
H     7.833700   11.093100    9.545700
C     6.539700   13.252700    8.598300
H     6.778600   13.395500    9.537800
H     5.660000   12.823700    8.546400
H     6.510200   14.115200    8.133900
C     9.700700   13.700800    9.464400
H     8.873600   14.084400    9.875000
C    10.764000   14.793300    9.447100
H    11.570400   14.457800    9.002700
H    10.981600   15.052200   10.366900
H    10.423400   15.573000    8.960400
C    10.187100   12.580000   10.360300
H     9.524900   11.857900   10.368800
H    10.311100   12.920500   11.270900
H    11.040100   12.237300   10.020800
C     9.503800   13.584300    4.128000
H     9.818600   12.844400    3.567000
H     9.387300   14.385500    3.576400
H     8.646900   13.341500    4.537100
C    12.387300   10.203600    4.054500
H    11.575800   10.358600    3.491000
C    13.546600   10.071600    3.062400
H    13.677000   10.924000    2.597000
H    13.339200    9.371000    2.409100
H    14.365200    9.834800    3.546300
C    12.121800    8.898200    4.786100
H    12.899500    8.668000    5.336300
H    11.960600    8.184900    4.133800
H    11.334200    8.999800    5.360400
C    14.263400   11.716300    5.752400
H    14.844900   11.595300    4.948000
C    14.636400   13.054400    6.381500
H    14.487100   13.773500    5.733200
H    15.581000   13.040600    6.642900
H    14.080900   13.208600    7.174400
C    14.591500   10.592000    6.717000
H    14.051500   10.689900    7.528800
H    15.542600   10.629100    6.950700
H    14.392500    9.730400    6.294300
B     8.920000   10.434900    5.158000
H     9.245700   10.170000    4.094400
H     8.995200    9.519500    5.838200
H     7.892700   10.883900    5.144500

QM/MM links (counting starts at zero)
  1   77
  3   57
  3   67
  4   33
  4   43
  5   53
  6   20
