55
QM: 39 at, MM: 16 at, Links: 2
Fe   -0.710500    4.082900    2.417400
S    -1.125200    1.018100    6.025200
S     1.034200    1.784400   -1.375300
N    -0.930300    2.629500    3.791400
N     0.220700    3.061000    0.926300
N    -2.827500    3.791400    1.547600
N    -1.175500    5.834300    1.211500
N    -1.327200    5.638700    4.171200
N     1.078200    5.011700    3.174300
N    -5.601100    4.128500    1.602700
N    -1.925200    8.207500    5.097500
C    -1.029100    1.953000    4.727600
C     0.542200    2.510300   -0.049400
C    -3.648100    2.699100    1.670500
C    -3.088100    1.442800    1.776400
C    -3.950900    0.337100    1.801800
C    -5.336800    0.507900    1.722700
C    -5.907800    1.782200    1.657700
C    -5.027400    2.881200    1.616800
C    -4.789300    5.144300    1.501000
C    -3.388300    4.980200    1.313200
C    -2.444700    6.002800    0.834500
C    -2.822400    6.984900   -0.060700
C    -1.821000    7.832200   -0.539400
C    -0.545300    7.679400   -0.156700
C    -0.240900    6.670300    0.751200
C    -2.547400    5.928600    4.661200
C    -3.542300    4.933000    4.658400
C    -4.810100    5.223000    5.210500
C    -5.050600    6.501700    5.762600
C    -4.076100    7.468100    5.748500
C    -2.825900    7.193900    5.178000
C    -0.726400    7.917600    4.613200
C    -0.407100    6.575900    4.227700
C     0.988400    6.108400    3.958000
C     2.085100    6.645600    4.566600
C     3.351000    6.072500    4.315200
C     3.426300    4.996000    3.494800
C     2.269700    4.485800    2.938500
N    -4.610400    7.367000    2.308700
N     0.835700    9.041300    3.225100
C    -5.382000    6.499500    1.660600
C    -6.694500    6.762400    1.293400
C    -7.178300    8.072700    1.582900
C    -6.387900    8.902000    2.242300
C    -5.128900    8.578300    2.593900
C     0.169000    9.059300    4.366100
C     0.231300   10.093100    5.313600
C     1.129200   11.129100    5.022700
C     1.776400   11.133600    3.835100
C     1.621100   10.090800    2.948400
O    -3.139200    9.149200   12.517800
C    -1.174400   10.081800   12.368200
C    -2.580000   10.135800   12.666100
C    -3.361000   11.315700   12.457100

QM/MM links (counting starts at zero)
 19   41
 32   46
