79
QM: 79 at, MM: 0 at, Links: 0
Fe    0.000000    0.000000    0.000000
N     0.984300    0.765100    1.484200
N     2.390700    2.366600    0.307100
N     0.945200    1.159100   -1.233400
N     0.043700   -0.482500    3.339400
C     0.848800    0.436400    2.802900
C     1.767900    1.221800    3.620000
C     2.019900    1.240200    4.968500
H     1.538900    0.701500    5.554500
C     3.009300    2.084200    5.425700
H     3.205100    2.104500    6.335000
C     3.723200    2.909000    4.554900
H     4.389900    3.465700    4.889200
C     3.447900    2.906200    3.192700
H     3.907500    3.463700    2.607500
C     2.464300    2.044300    2.735500
C     1.952700    1.748400    1.404000
C     1.907200    2.093500   -0.902400
C     2.339500    2.807200   -2.098300
C     3.229800    3.845500   -2.304700
H     3.704500    4.215000   -1.595900
C     3.394200    4.317000   -3.592700
H     3.984000    5.018100   -3.753900
C     2.686100    3.755200   -4.653800
H     2.820100    4.081500   -5.513600
C     1.784800    2.719700   -4.453400
H     1.308100    2.351600   -5.162200
C     1.618900    2.251400   -3.159400
C     0.774000    1.217700   -2.599900
N     1.435900   -1.426700   -0.239700
C     2.737800   -1.108800   -0.397500
H     2.971700   -0.209300   -0.410300
C     3.735500   -2.041300   -0.541600
H     4.619600   -1.773700   -0.650800
C     3.410400   -3.377800   -0.521200
H     4.068800   -4.029600   -0.602200
C     2.090700   -3.723700   -0.378700
H     1.839500   -4.619500   -0.368500
C     1.140300   -2.732900   -0.252500
H     0.249100   -2.983400   -0.171400
C    -0.774000   -1.217700    2.599900
N    -0.945200   -1.159100    1.233400
N    -0.984300   -0.765100   -1.484200
C    -0.848800   -0.436400   -2.802900
N    -0.043700    0.482500   -3.339400
N    -1.435900    1.426700    0.239700
C    -2.737800    1.108800    0.397500
H    -2.971700    0.209300    0.410300
C    -3.735500    2.041300    0.541600
H    -4.619600    1.773700    0.650800
C    -3.410400    3.377800    0.521200
H    -4.068800    4.029600    0.602200
C    -2.090700    3.723700    0.378700
H    -1.839500    4.619500    0.368500
C    -1.140300    2.732900    0.252500
H    -0.249100    2.983400    0.171400
C    -1.767900   -1.221800   -3.620000
C    -2.019900   -1.240200   -4.968500
H    -1.538900   -0.701500   -5.554500
C    -3.009300   -2.084200   -5.425700
H    -3.205100   -2.104500   -6.335000
C    -3.723200   -2.909000   -4.554900
H    -4.389900   -3.465700   -4.889200
C    -3.447900   -2.906200   -3.192700
H    -3.907500   -3.463700   -2.607500
C    -2.464300   -2.044300   -2.735500
C    -1.952700   -1.748400   -1.404000
N    -2.390700   -2.366600   -0.307100
C    -1.907200   -2.093500    0.902400
C    -2.339500   -2.807200    2.098300
C    -3.229800   -3.845500    2.304700
H    -3.704500   -4.215000    1.595900
C    -3.394200   -4.317000    3.592700
H    -3.984000   -5.018100    3.753900
C    -2.686100   -3.755200    4.653800
H    -2.820100   -4.081500    5.513600
C    -1.784800   -2.719700    4.453400
H    -1.308100   -2.351600    5.162200
C    -1.618900   -2.251400    3.159400

QM/MM links (counting starts at zero)
