91
QM: 45 at, MM: 46 at, Links: 8
Fe   -0.009100    6.523600    6.552100
B     2.699900    6.938900    4.831300
C     1.469500    6.300400    2.615400
H     2.197200    6.462300    2.025900
C     0.222600    5.855900    2.241000
H    -0.081200    5.652100    1.364200
C    -0.499700    5.770800    3.435900
C     4.133500    5.443500    6.457800
H     4.991300    5.589500    6.076500
C     3.879300    4.728600    7.604500
H     4.510400    4.286000    8.160000
C     2.495800    4.793200    7.777400
C     3.081700    9.342000    5.872300
H     3.983500    9.476300    5.604700
C     2.337000   10.206300    6.634700
H     2.605700   11.049800    6.979300
C     1.097700    9.578800    6.794300
N     0.261200    6.146200    4.466600
N     1.492800    6.470400    3.956300
N     1.943900    5.526800    6.795800
N     2.963800    5.904600    5.962700
N     1.097100    8.393800    6.162700
N     2.321900    8.267900    5.565100
B    -2.718200    6.108400    8.273000
C    -1.487800    6.746900   10.488900
H    -2.215500    6.585000   11.078400
C    -0.240900    7.191400   10.863300
H     0.062900    7.395200   11.740100
C     0.481500    7.276500    9.668300
C    -4.151800    7.603800    6.646500
H    -5.009600    7.457800    7.027800
C    -3.897600    8.318700    5.499700
H    -4.528700    8.761300    4.944200
C    -2.514100    8.254100    5.326900
C    -3.100000    3.705300    7.232000
H    -4.001800    3.571000    7.499600
C    -2.355300    2.841000    6.469600
H    -2.624000    1.997500    6.124900
C    -1.116000    3.468500    6.310000
N    -0.279500    6.901100    8.637700
N    -1.511100    6.576900    9.148000
N    -1.962200    7.520500    6.308500
N    -2.982100    7.142700    7.141600
N    -1.115400    4.653500    6.941600
N    -2.340200    4.779400    7.539200
I     7.605300    7.662500    0.583100
C     3.957600    7.125900    3.831800
C     4.187700    8.335500    3.161800
H     3.623700    9.077000    3.348100
C     5.215600    8.489900    2.231000
H     5.351300    9.324900    1.797900
C     6.035900    7.409800    1.946200
C     5.802100    6.177100    2.534500
H     6.341100    5.427700    2.309000
C     4.770000    6.049300    3.457800
H     4.610200    5.198000    3.850000
C    -1.923600    5.334600    3.606700
H    -2.132700    5.267200    4.561600
H    -2.050400    4.460900    3.183000
H    -2.519400    5.991300    3.187000
C     1.687400    4.157400    8.855600
H     0.733900    4.305600    8.680300
H     1.925100    4.553500    9.719400
H     1.869400    3.195300    8.875500
C    -0.092100   10.079400    7.548300
H    -0.910100    9.725500    7.140500
H    -0.109900   11.058900    7.517900
H    -0.036400    9.782900    8.481100
I    -7.623600    5.384800   12.521100
C    -3.975900    5.921400    9.272500
C    -4.206000    4.711800    9.942500
H    -3.642000    3.970300    9.756100
C    -5.233800    4.557400   10.873300
H    -5.369600    3.722400   11.306400
C    -6.054200    5.637500   11.158000
C    -5.820400    6.870200   10.569800
H    -6.359400    7.619600   10.795300
C    -4.788300    6.998000    9.646500
H    -4.628500    7.849300    9.254200
C     1.905300    7.712700    9.497600
H     2.114400    7.780100    8.542700
H     2.032100    8.586400    9.921300
H     2.501100    7.056000    9.917300
C    -1.705700    8.889900    4.248700
H    -0.752200    8.741700    4.424000
H    -1.943400    8.493800    3.384800
H    -1.887700    9.852000    4.228800
C     0.073800    2.967900    5.556000
H     0.891800    3.321800    5.963800
H     0.091600    1.988400    5.586400
H     0.018100    3.264400    4.623200

QM/MM links (counting starts at zero)
  1   46
  6   56
 11   60
 16   64
 23   69
 28   79
 33   83
 38   87
