82
QM: 19 at, MM: 63 at, Links: 0
Fe  -10.102500    3.296700    2.113400
S   -14.500100    1.340800    1.574400
S    -5.724400    5.421700    2.704400
S    -7.210100    0.167800   -0.210900
S   -13.071300    6.284900    4.442900
S    -8.010800    2.438300    6.117600
S   -12.492500    4.379200   -1.600500
C   -12.991500    1.953800    1.743700
C    -7.155900    4.745800    2.510100
C    -8.311800    1.113000    0.523600
C   -11.919600    5.403100    3.743400
C    -8.989100    2.365900    4.834100
C   -11.307900    4.347900   -0.509000
N   -11.896100    2.349200    1.916800
N    -8.227200    4.306800    2.312400
N    -9.125400    1.802300    1.041300
N   -11.048400    4.812600    3.180600
N    -9.695000    2.314500    3.883000
N   -10.468700    4.296500    0.295200
C   -16.425400  -10.889600   11.446900
H   -17.233600  -10.554600   11.766800
C   -15.538300  -10.060400   10.744500
H   -15.745100   -9.160500   10.638300
C   -14.355900  -10.554600   10.202000
C   -14.023000  -11.919200   10.450700
H   -13.228600  -12.281200   10.126400
C   -14.910800  -12.700900   11.190900
H   -14.696000  -13.586700   11.371300
C   -12.559800   -7.546900    8.659000
H   -12.579900   -6.620000    8.736000
C   -13.449200   -8.281100    9.464700
H   -14.040500   -7.849800   10.037700
C   -13.415800   -9.707300    9.377400
C   -12.513800  -10.260600    8.465500
H   -12.481100  -11.183600    8.359400
C   -11.653300   -9.442900    7.700600
H   -11.045000   -9.847300    7.124700
N   -16.088700  -12.190000   11.653400
N   -11.680100   -8.083500    7.777700
C   -10.420300   -4.973100    6.387300
H   -11.234300   -4.736900    6.766900
C    -9.637700   -3.993600    5.770700
H    -9.938700   -3.115500    5.737300
C    -8.405900   -4.327400    5.202100
C    -7.977900   -5.672700    5.283500
H    -7.157100   -5.925600    4.924300
C    -8.796300   -6.627700    5.910300
H    -8.516600   -7.512200    5.967000
C    -6.837100   -0.982000    4.146200
H    -6.893400   -0.082200    4.378900
C    -7.665800   -1.914000    4.812300
H    -8.283700   -1.630300    5.446400
C    -7.536800   -3.306800    4.489500
C    -6.614500   -3.668800    3.494700
H    -6.510600   -4.561000    3.250400
C    -5.852300   -2.665000    2.873700
H    -5.245100   -2.920400    2.217800
N   -10.004400   -6.264500    6.439700
H   -10.823700   -6.944800    7.140700
N    -5.952700   -1.362000    3.171900
H    -5.618800    0.038500    2.835900
C    -4.633400    1.713700    1.809200
H    -5.394800    1.983300    2.268700
C    -3.856700    2.665000    1.144500
H    -4.111500    3.559700    1.148900
C    -2.678600    2.267000    0.462500
C    -2.329800    0.903700    0.504600
H    -1.546400    0.607200    0.097400
C    -3.180000   -0.009000    1.173600
H    -2.960900   -0.911400    1.179400
C    -1.086800    5.541700   -0.661700
H    -1.145500    6.448000   -0.459600
C    -1.923400    4.652100    0.027600
H    -2.543000    4.961500    0.650100
C    -1.798900    3.277300   -0.248700
C    -0.863400    2.865200   -1.227400
H    -0.759700    1.964100   -1.435400
C    -0.088400    3.840800   -1.883300
H     0.521800    3.566100   -2.530500
N    -4.291300    0.392800    1.794600
N    -0.191800    5.151500   -1.614300
H     0.407600    6.238800   -2.123300

QM/MM links (counting starts at zero)
