178
QM: 37 at, MM: 141 at, Links: 0
I    23.262400   11.905600   20.422600
I    19.167800   15.700900   24.744500
I    21.992000    5.738500   25.609700
I    16.505400    9.172500   23.019500
I    25.105000   11.440800   28.391000
I    18.331600   10.864300   29.636300
Fe   21.058200   10.830500   25.132600
O    19.922100   10.742000   26.821200
O    21.859100   11.285000   23.349400
O    20.022100   16.048100   21.683100
O    19.286900   10.287700   24.353400
O    22.708300   11.009100   26.247500
O    24.628500    6.081200   27.454000
C    21.656700   12.472000   22.893800
O    20.623000   12.786600   25.011500
O    21.803700   14.741200   20.130700
C    22.008300   13.010000   21.674700
O    15.515300   10.040500   28.247100
O    14.858800    9.317800   25.787700
C    17.765000   10.442400   27.690300
C    24.202700    7.203400   27.196700
C    20.828300   13.362000   23.859900
C    18.297300   10.159100   25.235100
C    17.035500    9.777200   24.952400
O    21.599700    8.912100   25.197100
C    20.317800   14.561500   23.488600
C    24.281400    9.765900   27.462500
C    23.260300    9.888200   26.589200
C    20.523500   15.070800   22.151400
C    22.606900    8.648800   26.023900
O    25.785600    8.265600   28.559300
C    16.016400    9.727200   25.960700
C    18.690600   10.498600   26.656700
C    23.009000    7.385600   26.348800
C    21.536200   14.254400   21.219100
C    16.452600   10.092900   27.403400
C    24.843900    8.476500   27.804200
P    23.486100    6.811400   18.387600
C    20.565500    7.788800   21.759000
H    19.938400    7.977200   22.421300
C    22.549800    6.475700   16.882500
C    21.016800    5.966400   14.663500
H    20.471400    5.754200   13.937900
C    20.710300    7.039800   15.498800
H    20.007800    7.605300   15.287900
C    26.226600   10.397500   17.776800
H    26.808800   11.115200   17.667100
C    25.108700    8.854700   19.240600
H    24.908100    8.550200   20.097000
C    21.425800    7.238300   16.612500
H    21.169200    7.902400   17.207300
C    24.530900    5.367300   18.755500
C    25.880000    5.528300   18.869400
H    26.258000    6.377100   18.831400
C    24.789500    8.739900   16.840300
H    24.386400    8.339200   16.102000
C    22.368400    7.178400   19.759500
C    26.678400    4.407400   19.046500
H    27.597800    4.511000   19.135100
C    22.039100    6.186100   20.683300
H    22.398400    5.329800   20.632700
C    26.128500    3.140500   19.092900
H    26.669900    2.387800   19.173100
C    23.904200    4.107800   18.793400
H    22.987500    4.003000   18.683800
C    24.771000    3.021900   19.012800
H    24.397700    2.175600   19.109800
C    22.907600    5.439700   16.034500
H    23.648100    4.907900   16.215900
C    24.547900    8.248100   18.110000
C    25.628500    9.820800   16.658900
H    25.792100   10.156600   15.806700
C    25.965600    9.920700   19.050800
H    26.374000   10.320100   19.784800
C    20.885400    8.737400   20.894200
H    20.526700    9.597400   20.974400
C    21.785600    8.434100   19.839600
H    21.986300    9.078200   19.198400
C    21.124400    6.548100   21.708400
H    20.900400    5.922700   22.362300
C    22.146200    5.217500   14.929300
H    22.392400    4.549700   14.334500
P    18.699800   13.825100   17.578100
C    15.371100   12.046400   15.979700
H    14.559200   11.705600   16.270800
C    17.194100   13.967400   19.839600
H    16.697200   14.579000   19.346100
C    17.515400   13.123600   16.439500
C    16.854100   13.679000   21.117800
H    16.141700   14.132100   21.505900
C    18.365600   18.423400   17.557400
H    18.279700   19.349600   17.561600
C    17.864100   16.267800   16.566100
H    17.423000   15.788500   15.903800
C    19.127700   17.728200   18.515000
H    19.561500   18.205000   19.185800
C    19.000600   12.440800   19.987300
H    19.742300   12.026400   19.611800
C    18.302400   13.334500   19.274300
C    18.621500   12.133800   21.282400
H    19.117100   11.509700   21.763300
C    22.827800   12.282300   16.279200
H    23.669200   11.965200   16.038800
C    17.757400   17.620800   16.608200
H    17.238900   18.035200   15.954400
C    21.814800   11.433500   16.519700
H    21.966300   10.523600   16.410000
C    18.608100   15.610000   17.494100
C    17.861900   13.044900   15.085400
H    18.681200   13.367000   14.785900
C    21.384600   14.133400   16.857100
H    21.268700   15.045800   16.996400
C    19.241100   16.356400   18.481300
H    19.753000   15.923300   19.126700
C    20.318300   13.229700   17.114500
C    20.544500   11.846700   16.933100
H    19.866000   11.228800   17.084900
C    22.590000   13.655300   16.401500
H    23.257600   14.256900   16.173700
C    15.737600   12.045100   14.650900
H    15.125100   11.728100   14.026500
C    17.538600   12.722900   21.868700
H    17.273100   12.498200   22.729300
C    16.303100   12.595600   16.848700
H    16.104000   12.610600   17.755700
C    16.946600   12.469500   14.195300
H    17.162800   12.380900   13.296700
P    23.838500   16.512400   30.664700
C    21.434200   13.505500   28.247100
H    21.005100   12.835200   27.766200
C    23.328800   14.978400   34.874400
H    23.161200   14.577700   35.697000
C    22.032300   14.520300   27.610100
H    21.948300   14.607700   26.686300
C    22.639800   16.420100   33.140600
H    22.004800   16.991700   32.773600
C    22.841100   15.355400   29.765800
C    22.066500   18.411000   29.736200
H    21.617300   17.743200   29.276400
C    25.472600   16.386400   30.040000
C    22.794800   15.455200   28.335700
H    23.260600   16.128000   27.897000
C    21.460800   13.460600   29.643400
H    20.955200   12.806500   30.069500
C    23.153400   18.138800   30.495600
C    22.155800   14.289400   30.394300
H    22.199600   14.175800   31.314000
C    23.815200   19.172400   31.157900
H    24.542800   18.985100   31.706300
C    21.633000   19.759000   29.673000
H    20.877600   19.946200   29.162500
C    28.088400   15.989400   29.217400
H    28.988600   15.893300   28.993800
C    25.924100   15.178100   29.609700
H    25.318600   14.472900   29.554800
C    22.499100   15.952000   34.427200
H    21.839500   16.292800   34.984100
C    24.391000   14.579000   34.148800
H    24.988100   13.963600   34.498900
C    24.597200   15.093200   32.887500
H    25.311200   14.799900   32.372800
C    23.749400   16.021900   32.410800
C    26.296500   17.424900   29.930300
H    26.008600   18.291100   30.124300
C    23.377400   20.445500   30.980700
H    23.893100   21.123300   31.356100
C    27.271300   14.941000   29.242700
H    27.570400   14.083400   29.031700
C    22.265500   20.820000   30.322600
H    21.952800   21.701200   30.301500
C    27.568100   17.200200   29.529500
H    28.131100   17.931600   29.462000
O    12.593900    3.844500   29.795300
O    27.483100    9.012000   30.693800
O    14.387300   11.333700   30.841500
O    13.670900    7.002400   30.453400
O    13.453900    8.225600   28.474900
O    20.387700    5.142600   11.166400

QM/MM links (counting starts at zero)
