76
QM: 73 at, MM: 3 at, Links: 0
Fe   12.328000    6.309500    8.388600
O    10.677800    7.214100    9.116800
O    11.402300    4.699300    7.614200
N    14.245200    5.274900    8.301300
N    12.679200    5.691400   10.404200
N    13.467500    8.182100    8.534500
N    12.384800    7.037900    6.375200
C    15.003600    5.072600    7.231300
C    16.185700    4.315900    7.227900
C    16.576600    3.738000    8.370000
C    15.823200    3.917200    9.550400
C    16.162500    3.315800   10.781500
C    15.366400    3.503300   11.850500
C    14.194900    4.248700   11.778400
C    13.833600    4.891000   10.614800
C    14.654400    4.690600    9.482900
C    11.930400    5.990400   11.436000
C    10.746400    6.759500   11.460700
C    10.040800    6.924900   12.733500
C    10.453900    6.321100   13.944400
C     9.759800    6.487500   15.112400
C     8.617000    7.256200   15.159700
C     8.148200    7.843000   14.022100
C     8.852100    7.672100   12.797700
C     8.350100    8.264300   11.608300
C     8.971400    8.103100   10.424500
C    10.172500    7.338200   10.300600
C    13.979400    8.716500    9.604500
C    14.662600    9.950200    9.657400
C    14.760200   10.666400    8.486000
C    14.193900   10.143800    7.314600
C    14.262300   10.839100    6.077900
C    13.690100   10.300200    4.995400
C    13.040300    9.043100    5.028100
C    13.561000    8.893400    7.359700
C    12.987600    8.317300    6.202900
C    11.955800    6.407500    5.322100
C    11.370000    5.121900    5.237600
C    10.974500    4.605900    3.950200
C    11.007600    5.355700    2.748300
C    10.683200    4.797800    1.542000
C    10.266000    3.480600    1.449600
C    10.162700    2.742000    2.568100
C    10.507400    3.271900    3.830800
C    10.390000    2.477700    5.002200
C    10.659500    2.978400    6.226500
C    11.160600    4.309700    6.415800
H    14.733000    5.458200    6.428200
H    16.685600    4.217400    6.449600
H    17.347400    3.217500    8.386900
H    16.930300    2.795800   10.853600
H    15.608400    3.122900   12.664800
H    13.646700    4.313500   12.526300
H    12.214800    5.655200   12.256000
H    11.219400    5.793400   13.947800
H    10.063900    6.073800   15.887400
H     8.168200    7.375100   15.965100
H     7.370700    8.352700   14.045800
H     7.572700    8.773600   11.647700
H     8.609500    8.500700    9.665300
H    13.887100    8.245700   10.400800
H    15.031300   10.264900   10.450400
H    15.195500   11.487800    8.472500
H    14.700300   11.658500    6.021500
H    13.719000   10.768600    4.192300
H    12.647400    8.703200    4.255400
H    12.045500    6.863100    4.516700
H    11.256700    6.251100    2.781000
H    10.745000    5.313400    0.770400
H    10.058400    3.111500    0.621800
H     9.858400    1.864500    2.508400
H    10.120800    1.590200    4.924500
H    10.515100    2.442000    6.973300
Cl   17.966500    9.283200    7.342800
Cl   17.532800    7.227900    9.259800
C    17.230900    7.822800    7.606300

QM/MM links (counting starts at zero)
