152
QM: 54 at, MM: 98 at, Links: 2
Fe    9.214800    4.293700   10.371200
N    11.350600    4.551000   10.171500
C    12.013600    3.204900   10.103000
H    12.455200    3.007100   10.966700
H    12.707000    3.212300    9.396300
C    10.983900    2.120800    9.796700
H    11.419700    1.352200    9.350900
H    10.564500    1.802900   10.634200
N     9.965500    2.710400    8.911700
C    10.608800    3.217000    7.675500
H    10.034600    2.986900    6.902900
H    11.473900    2.751500    7.554800
C    10.863200    4.756200    7.671100
C    11.593600    5.313900    8.929000
H    12.567500    5.324600    8.750200
H    11.306000    6.249600    9.072500
N     8.637700    5.239200    8.534700
C     7.346000    5.582300    8.369300
H     6.751900    5.472600    9.101800
C     6.846100    6.083100    7.187700
H     5.921700    6.276600    7.090400
C     7.729100    6.294700    6.153400
H     7.424200    6.676800    5.338300
C     9.058000    5.952600    6.303700
H     9.673400    6.105000    5.596200
C     9.489500    5.383800    7.495500
N    10.160100    3.829200   12.402800
C     9.761200    2.996000   13.374000
H     8.933500    2.542900   13.266700
C    10.489900    2.760200   14.522100
H    10.183000    2.139300   15.172600
C    11.672400    3.444700   14.703000
H    12.192400    3.313200   15.487600
C    12.092100    4.331700   13.720100
H    12.892300    4.833600   13.832200
C    11.329200    4.475300   12.579200
C    11.788500    5.282300   11.385300
H    11.384900    6.185700   11.406200
H    12.774400    5.375100   11.393000
N     7.756400    2.786400   10.550400
C     6.879600    2.757500   11.573800
H     6.713100    3.562100   12.052300
C     6.215500    1.613900   11.954600
H     5.602400    1.628000   12.679300
C     6.461800    0.442300   11.255600
H     6.033400   -0.366600   11.508800
C     7.338300    0.465900   10.185900
H     7.512200   -0.326300    9.690700
C     7.961000    1.655900    9.843400
C     8.860100    1.776300    8.643900
H     9.228200    0.884600    8.416200
H     8.335800    2.098900    7.868300
N     8.188200    5.887000   11.374600
C     7.580500    6.773000   11.767200
C    11.774300    5.039100    6.465600
H    11.965000    6.000700    6.418000
H    11.324800    4.756200    5.643000
H    12.614200    4.544300    6.567400
C     6.797700    7.892400   12.251500
H     7.288300    8.725300   12.094800
H     6.632900    7.783500   13.211100
H     5.941600    7.924700   11.775400
B     9.500300    8.152800   15.934400
C     8.113100    7.291400   15.760200
C     8.092700    6.032000   15.137800
H     8.913800    5.650900   14.847400
C     6.919100    5.322600   14.930300
H     6.950500    4.466900   14.520700
C     5.704200    5.852100   15.315500
H     4.900000    5.365000   15.178500
C     5.674900    7.103000   15.903100
H     4.845600    7.487500   16.158600
C     6.863600    7.797600   16.120500
H     6.821800    8.651300   16.532100
C     9.712800    8.893500   14.483200
C    10.466600    8.330100   13.440200
H    10.890800    7.494200   13.589000
C    10.619900    8.938900   12.201400
H    11.149300    8.523500   11.532200
C    10.005000   10.150500   11.937600
H    10.119200   10.578600   11.098600
C     9.218500   10.724300   12.924500
H     8.773500   11.547400   12.755500
C     9.078300   10.103400   14.160100
H     8.528300   10.514700   14.815200
C     9.404000    9.205300   17.196100
C     8.895100    8.767000   18.428500
H     8.526800    7.891100   18.479100
C     8.901900    9.546300   19.574300
H     8.544200    9.202900   20.385000
C     9.429900   10.822200   19.539300
H     9.439600   11.362400   20.320500
C     9.942200   11.298500   18.351000
H    10.307000   12.176400   18.310600
C     9.927900   10.498300   17.209200
H    10.290900   10.847700   16.404700
C    10.780100    7.190100   16.327600
C    10.633900    6.017900   17.075200
H     9.758200    5.735000   17.310000
C    11.714400    5.251300   17.488300
H    11.565000    4.456800   17.985400
C    13.004800    5.635800   17.181800
H    13.746100    5.109400   17.459500
C    13.199700    6.800300   16.463100
H    14.079400    7.087200   16.249400
C    12.100400    7.553700   16.053100
H    12.257000    8.351900   15.563800
B     9.509900    0.222700    3.687600
C     8.926900   -0.451400    2.296800
C     9.194200   -1.784400    1.939500
H     9.684100   -2.327600    2.547600
C     8.775400   -2.349800    0.736300
H     8.982000   -3.256000    0.542000
C     8.061400   -1.596700   -0.173000
H     7.755800   -1.981200   -0.987400
C     7.800200   -0.273500    0.126900
H     7.329600    0.265700   -0.498100
C     8.219600    0.277500    1.335300
H     8.015900    1.187400    1.514800
C     8.561800    1.505900    4.123300
C     8.582500    2.733000    3.434600
H     9.266000    2.879300    2.792200
C     7.652300    3.734300    3.651700
H     7.686300    4.530800    3.135000
C     6.669900    3.582600    4.619000
H     6.016900    4.258400    4.756700
C     6.661000    2.422800    5.382100
H     6.023600    2.317500    6.078100
C     7.582700    1.411700    5.130200
H     7.549500    0.625600    5.660600
C     9.464100   -0.834200    4.956100
C    10.228500   -0.617600    6.116700
H    10.863600    0.087500    6.116200
C    10.097600   -1.389900    7.263300
H    10.645200   -1.210900    8.019200
C     9.170900   -2.420100    7.310600
H     9.069000   -2.943200    8.096900
C     8.395900   -2.674800    6.190400
H     7.762500   -3.383800    6.201200
C     8.547600   -1.892000    5.048400
H     8.002700   -2.085500    4.293800
C    11.057900    0.702300    3.393200
C    11.682400    1.696600    4.169000
H    11.178100    2.122500    4.852000
C    13.005100    2.081100    3.979700
H    13.387500    2.744700    4.539900
C    13.766300    1.503900    2.984000
H    14.671800    1.762500    2.855200
C    13.184500    0.536800    2.173100
H    13.688600    0.137900    1.473800
C    11.865900    0.150700    2.384400
H    11.493300   -0.518000    1.821000

QM/MM links (counting starts at zero)
 12   54
 53   58
