90
QM: 37 at, MM: 53 at, Links: 6
Fe   -0.000000    6.046900   22.986700
C     2.696400    6.377900   21.627900
H     2.884000    7.251500   21.950500
N     3.496100    5.640600   20.867300
N     2.888700    4.463300   20.615600
N     1.748500    4.493500   21.209000
N     1.596000    5.687500   21.858300
C    -1.634900    8.216500   21.627900
H    -2.485200    7.942200   21.950500
N    -1.396200    9.277800   20.867300
N    -0.072900    9.340300   20.615600
N     0.471000    8.337800   21.209000
N    -0.486800    7.608700   21.858300
C    -1.061500    3.546200   21.627900
H    -0.398800    2.947000   21.950500
N    -2.099900    3.222300   20.867300
N    -2.815700    4.337000   20.615600
N    -2.219500    5.309300   21.209000
N    -1.109200    4.844400   21.858300
C    -2.696400    5.715900   24.345400
H    -2.884000    4.842300   24.022900
N    -3.496100    6.453200   25.106000
N    -2.888700    7.630400   25.357700
N    -1.748500    7.600200   24.764300
N    -1.596000    6.406200   24.115100
C     1.634900    3.877200   24.345400
H     2.485200    4.151600   24.022900
N     1.396200    2.816000   25.106000
N     0.072900    2.753400   25.357700
N    -0.471000    3.756000   24.764300
N     0.486800    4.485000   24.115100
C     1.061500    8.547500   24.345400
H     0.398800    9.146800   24.022900
N     2.099900    8.871400   25.106000
N     2.815700    7.756800   25.357700
N     2.219500    6.784400   24.764300
N     1.109200    7.249400   24.115100
O     6.229700    6.586600   18.734700
H     6.289300    6.775500   17.953700
C     4.870000    5.857400   20.444600
H     5.360100    4.998400   20.487300
H     5.305500    6.486100   21.073100
O     4.017200    6.632000   18.335800
C     4.971500    6.412200   19.045000
O    -3.582300   11.172100   18.734700
H    -3.775700   11.129300   17.953700
C    -2.270900   10.359100   20.444600
H    -1.772000   11.213100   20.487300
H    -3.033100   10.422000   21.073100
O    -2.515400    9.233300   18.335800
C    -2.802100   10.169600   19.045000
O    -2.647400    0.382000   18.734700
H    -2.513600    0.235800   17.953700
C    -2.599100    1.924100   20.444600
H    -3.588100    1.929100   20.487300
H    -2.272400    1.232600   21.073100
O    -1.501800    2.275300   18.335800
C    -2.169400    1.558800   19.045000
O    -6.229700    5.507200   27.238600
H    -6.289300    5.318200   28.019600
C    -4.870000    6.236300   25.528800
H    -5.360100    7.095400   25.486000
H    -5.305500    5.607700   24.900200
O    -4.017200    5.461700   27.637600
C    -4.971500    5.681600   26.928300
O     3.582300    0.921700   27.238600
H     3.775700    0.964500   28.019600
C     2.270900    1.734600   25.528800
H     1.772000    0.880600   25.486000
H     3.033100    1.671800   24.900200
O     2.515400    2.860400   27.637600
C     2.802100    1.924100   26.928300
O     2.647400   11.711800   27.238600
H     2.513600   11.857900   28.019600
C     2.599100   10.169700   25.528800
H     3.588100   10.164600   25.486000
H     2.272400   10.861200   24.900200
O     1.501800    9.818500   27.637600
C     2.169400   10.534900   26.928300
B     5.236800    3.023400   23.577800
F     5.236800    3.023400   24.969400
F     4.626900    4.190200   23.121300
F     4.531200    1.911900   23.121300
F     6.552100    2.968200   23.121300
C     5.236800    3.023400   17.431700
N     5.236800    3.023400   18.552700
C     5.236800    3.023400   15.990400
H     4.849200    3.827700   15.660800
H     4.734000    2.285700   15.660800
H     6.127000    2.956900   15.660800

QM/MM links (counting starts at zero)
  3   39
  9   46
 15   53
 21   60
 27   67
 33   74
