77
QM: 51 at, MM: 26 at, Links: 0
Fe    1.656500    4.986000    8.937500
N     0.439600    4.819000    5.840700
H     0.410400    3.953300    5.751200
N     0.935200    5.442100    6.936900
N     1.769500    7.077000    8.771800
N     2.433400    5.659200   10.825600
N     2.850600    5.127200   11.989700
H     2.582900    4.288300   12.088400
C     0.005900    5.695400    4.920100
H    -0.371300    5.485000    4.096800
C     0.218000    6.943000    5.408900
H     0.016600    7.755100    5.001900
C     0.805600    6.740700    6.656300
C     1.327900    7.692100    7.649300
C     1.471800    9.029600    7.461200
H     1.162900    9.443600    6.688700
C     2.097100    9.757200    8.466500
H     2.218500   10.673800    8.360100
C     2.537800    9.142100    9.613600
H     2.954900    9.633900   10.284400
C     2.350100    7.784600    9.752400
C     2.741400    6.961800   10.890300
C     3.376400    7.252600   12.091400
H     3.705300    8.074100   12.378200
C     3.407500    6.055900   12.756000
H     3.760800    5.917900   13.605600
N    -1.396000    5.141900   10.182600
H    -1.256200    5.976800    9.976000
N    -0.287100    4.510800    9.727700
N     1.604300    2.882500    9.026200
N     3.595300    4.316400    8.187400
N     4.707300    4.848500    7.672400
H     4.972900    5.682000    7.694000
C    -2.236800    4.245400   10.720700
H    -3.058800    4.447800   11.107700
C    -1.718000    3.027300   10.617400
H    -2.096400    2.228600   10.908800
C    -0.492400    3.196100    9.985200
C     0.525200    2.296900    9.553500
C     0.461300    0.909900    9.605900
H    -0.286200    0.487800    9.963600
C     1.491800    0.180900    9.134100
H     1.432600   -0.746400    9.149500
C     2.639400    0.775900    8.625300
H     3.365700    0.272000    8.335400
C     2.639700    2.166900    8.576000
C     3.739600    2.988400    8.077900
C     4.954500    2.674800    7.490500
H     5.293800    1.831900    7.288500
C     5.530300    3.871500    7.280800
H     6.375900    4.000200    6.916900
O     2.012300    2.724400   12.550900
O     3.797200    1.593400   11.863200
C     2.645900    1.700600   12.341200
C     1.948900    0.377900   12.675800
C     0.687400    0.343100   13.136800
H     0.227700    1.140400   13.271000
C     0.065100   -0.849600   13.414400
H    -0.805100   -0.824200   13.739700
C     1.889200   -1.988700   12.811500
H     2.339500   -2.795400   12.709700
C     2.573800   -0.822800   12.503100
H     3.445500   -0.859000   12.182400
N     0.629600   -2.028900   13.244800
O     6.436300    7.763200    9.743200
O     5.364900    7.465700    7.820400
C     5.898800    8.157200    8.700800
C     5.872200    9.663400    8.475700
C     5.971100   10.529100    9.548900
H     6.121900   10.211500   10.410800
C     5.841100   11.873200    9.300600
H     5.829600   12.440100   10.037700
C     5.690600   11.551600    7.092700
H     5.615600   11.890700    6.229200
C     5.754400   10.191400    7.216000
H     5.719000    9.640600    6.468200
N     5.725400   12.445500    8.093300

QM/MM links (counting starts at zero)
