123
QM: 49 at, MM: 74 at, Links: 2
Se    1.229100   14.664800    8.374700
Fe    0.253300   11.147000   11.730500
N     1.030700   12.287600   10.113100
N    -1.738600   11.167100   10.815900
N     0.428200    9.199000   10.657700
N    -0.773600   10.203500    8.906300
C     1.102100   13.221000    9.426000
C     0.926300    8.087600   11.246100
H     1.359100    8.177400   12.087100
C     0.838900    6.832000   10.685800
H     1.205300    6.077300   11.131100
C     0.201600    6.690000    9.452400
H     0.125200    5.836600    9.044200
C    -0.316300    7.812500    8.836500
H    -0.752300    7.749400    7.994300
C    -0.183100    9.035300    9.480300
C    -1.915600   10.763300    9.551000
C    -3.135700   10.826400    8.893400
H    -3.219300   10.536100    7.993200
C    -4.226800   11.324000    9.583800
H    -5.072700   11.396700    9.156800
C    -4.070600   11.715900   10.909400
H    -4.809600   12.045400   11.407900
C    -2.820400   11.614100   11.484900
H    -2.715900   11.871600   12.393300
Se   -0.722500    7.629200   15.086300
N    -0.524100   10.006400   13.347900
N     2.245200   11.126900   12.645100
N     0.078400   13.095000   12.803200
N     1.280200   12.090500   14.554700
C    -0.595500    9.073000   14.034900
C    -0.419700   14.206400   12.214800
H    -0.852500   14.116600   11.373900
C    -0.332400   15.462000   12.775200
H    -0.698700   16.216700   12.329900
C     0.305000   15.604000   14.008600
H     0.381300   16.457400   14.416800
C     0.822900   14.481500   14.624500
H     1.258900   14.544600   15.466700
C     0.689700   13.258700   13.980600
C     2.422200   11.530700   13.910000
C     3.642300   11.467600   14.567600
H     3.725900   11.757900   15.467800
C     4.733400   10.970000   13.877200
H     5.579300   10.897300   14.304200
C     4.577200   10.578100   12.551600
H     5.316200   10.248600   12.053100
C     3.326900   10.679900   11.976100
H     3.222500   10.422400   11.067700
N     0.759800   10.090700    7.192900
N    -0.893800   11.814500    7.260600
N     0.657900   11.717500    5.435900
N     2.215800   10.011100    5.425500
N     1.190200    6.735200    5.279900
N     1.212500    9.448600    2.160400
N    -0.968300   13.360100    5.590600
N    -4.282600   12.877900    6.411500
N     0.803400   16.141100    4.644900
C    -0.282800   10.724800    7.731100
C    -0.359700   12.252300    6.114900
C     1.161900   10.628200    6.035100
C     2.708700    8.744600    5.947200
H     2.764300    8.799400    6.933900
H     3.622900    8.585400    5.600100
C     1.848200    7.612300    5.575500
C     2.652400   10.441400    4.108500
H     3.598500   10.175000    3.980200
H     2.608500   11.430100    4.062300
C     1.841200    9.872900    3.012000
C    -1.955400   14.074600    6.385400
H    -2.069400   14.988300    6.018900
H    -1.626800   14.158900    7.315100
C    -3.255800   13.394200    6.394400
C    -0.550900   13.927500    4.319300
H    -1.351900   14.123200    3.770200
H    -0.002300   13.264900    3.831200
C     0.226600   15.165300    4.501000
N    -0.253200   12.203300   16.268100
N     1.400300   10.479500   16.200400
N    -0.151400   10.576500   18.025100
N    -1.709200   12.282900   18.035500
N    -0.683700   15.558800   18.181100
N    -0.705900   12.845400   21.300600
N     1.474900    8.933900   17.870300
N     4.789200    9.416100   17.049400
N    -0.296800    6.152900   18.816100
C     0.789400   11.569200   15.729900
C     0.866300   10.041700   17.346100
C    -0.655300   11.665800   17.425900
C    -2.202100   13.549400   17.513700
H    -2.257700   13.494600   16.527100
H    -3.116300   13.708600   17.860800
C    -1.341700   14.681700   17.885500
C    -2.145800   11.852600   19.352500
H    -3.092000   12.119000   19.480800
H    -2.101900   10.863900   19.398700
C    -1.334600   12.421100   20.448900
C     2.462000    8.219400   17.075600
H     2.576000    7.305700   17.442100
H     2.133400    8.135100   16.145800
C     3.762300    8.899800   17.066600
C     1.057500    8.366500   19.141700
H     1.858500    8.170800   19.690800
H     0.508900    9.029100   19.629800
C     0.279900    7.128700   18.960000
N    -6.181600   17.051800   10.222000
C    -5.601200   16.283300    9.620200
C    -4.838400   15.308000    8.860000
H    -4.917800   15.505500    7.902800
H    -5.187200   14.408600    9.038300
H    -3.895900   15.351600    9.125100
N    -1.135600   14.934800    1.447500
C    -1.992600   14.862700    0.714400
C    -3.104000   14.788700   -0.191200
H    -3.781300   15.449700    0.066900
H    -3.494100   13.891400   -0.157200
H    -2.795400   14.977100   -1.102700
N     2.429100   13.425400    2.527800
C     2.275300   14.439600    2.038800
C     2.084400   15.743100    1.426400
H     2.348900   16.444100    2.058700
H     1.140700   15.857700    1.188300
H     2.634200   15.808700    0.618200

QM/MM links (counting starts at zero)
  5   58
 29   86
