91
QM: 43 at, MM: 48 at, Links: 5
Fe    3.326800    1.137800    3.496300
N     3.999000    1.751000    1.714100
N     2.199100   -0.248700    2.596400
N     2.523500    0.626100    5.278700
N     4.359100    2.613900    4.393900
C     2.885900    0.106100    0.254200
C     1.107800   -1.257300    4.573300
C     3.655800    2.261100    6.734600
C     5.457400    3.613700    2.429300
C     4.828900    2.827000    1.467700
C     3.679000    1.236400    0.481900
C     2.234200   -0.601500    1.267100
C     1.432200   -1.212000    3.212100
C     1.608900   -0.370000    5.520800
C     2.782400    1.205000    6.498300
C     4.419300    2.886400    5.742900
C     5.247800    3.477600    3.802500
C     4.982900    3.009400    0.049600
H     5.486200    3.690400   -0.380800
C     4.279700    2.034400   -0.552300
H     4.196200    1.898100   -1.488500
C     1.496200   -1.819500    1.057400
H     1.383200   -2.276700    0.232100
C     0.996400   -2.187600    2.255500
H     0.457300   -2.949400    2.432300
C     1.256600   -0.389500    6.916100
H     0.633300   -0.972900    7.332900
C     1.976000    0.577000    7.518700
H     1.957200    0.803800    8.440600
C     5.388000    3.913800    5.991600
H     5.620100    4.276200    6.838100
C     5.907700    4.269100    4.800400
H     6.582700    4.920100    4.650500
N     4.619700   -0.028200    3.576300
O     5.122500   -0.849600    2.890100
N     1.731600    2.593600    3.260300
N     0.169600    4.093600    3.696100
C     1.019900    3.177300    4.197700
H     1.096300    2.977200    5.123000
C     0.360000    4.100100    2.339100
H    -0.092700    4.642800    1.704000
C     1.316000    3.184300    2.083400
H     1.654900    2.976400    1.220300
F     2.248900   -1.636300   -5.035500
C     2.717100   -0.363200   -1.157100
C     3.819900   -0.684100   -1.933200
H     4.690400   -0.615300   -1.559400
C     3.673800   -1.105800   -3.246700
H     4.432300   -1.314500   -3.780400
C     2.407000   -1.213400   -3.752500
C     1.287600   -0.912900   -3.020400
H     0.420300   -1.005600   -3.396800
C     1.452400   -0.475000   -1.726100
H     0.687400   -0.244100   -1.212000
F    -2.343000   -5.332900    6.312600
C     0.186900   -2.348100    5.031400
C     0.639800   -3.342900    5.882900
H     1.540500   -3.325400    6.183500
C    -0.205900   -4.369200    6.306200
H     0.109100   -5.058100    6.878400
C    -1.492700   -4.350700    5.873800
C    -1.987800   -3.401200    5.030300
H    -2.891800   -3.432900    4.739400
C    -1.140100   -2.387100    4.607400
H    -1.468200   -1.712800    4.023600
F     3.968300    4.174000   12.001200
C     3.774800    2.783300    8.136500
C     3.304400    4.047200    8.460100
H     2.916800    4.586700    7.780400
C     3.389000    4.543200    9.752100
H     3.084700    5.417100    9.963900
C     3.927900    3.723700   10.717500
C     4.408500    2.471900   10.446800
H     4.785600    1.935200   11.134200
C     4.330400    2.004500    9.144700
H     4.662000    1.138600    8.938200
F     9.193700    7.420400    0.676400
C     6.443600    4.644400    1.955000
C     6.218700    5.993400    2.135500
H     5.420500    6.281600    2.562900
C     7.144000    6.942400    1.700600
H     6.986700    7.872600    1.822100
C     8.276400    6.495400    1.096600
C     8.542400    5.179600    0.881000
H     9.338600    4.907100    0.440600
C     7.615300    4.244500    1.322900
H     7.784600    3.318800    1.191100
C    -0.755100    4.955700    4.415600
H    -0.760000    4.708800    5.364900
H    -1.655900    4.847900    4.045900
H    -0.472300    5.888300    4.322500

QM/MM links (counting starts at zero)
  5   44
  6   55
  7   66
  8   77
 36   87
