78
QM: 37 at, MM: 41 at, Links: 6
Fe    6.790300    1.362000   11.141100
N     5.931400    1.746300    9.421700
N     8.189600    2.709800   10.390400
N     7.475300    1.072200   13.091700
N     5.983100    2.921200   11.993500
N     5.389200    0.129400   11.674100
N     7.493300   -0.369500   10.210500
C     5.468900   -1.062800   11.226500
H     4.831600   -1.725100   11.467400
C     6.574400   -1.364800   10.333300
C     6.682700   -2.593400    9.713000
H     6.001600   -3.247200    9.818600
C     7.790400   -2.858000    8.938200
H     7.881300   -3.687600    8.483300
C     8.749400   -1.898700    8.844000
H     9.537300   -2.077400    8.344700
C     8.598000   -0.646200    9.472000
C     6.566500    2.548400    8.649400
H     6.235600    2.760900    7.784100
C     7.807900    3.122200    9.141600
C     8.521600    4.015600    8.368200
H     8.217400    4.262000    7.503700
C     9.692900    4.541300    8.884700
H    10.219000    5.148500    8.377900
C    10.076400    4.161900   10.150900
H    10.867300    4.528100   10.530000
C     9.318500    3.245300   10.889500
C     6.266000    3.105900   13.232600
H     5.981500    3.886700   13.693300
C     7.033000    2.080800   13.897100
C     7.217900    2.119700   15.271400
H     6.915900    2.864300   15.779100
C     7.847500    1.062200   15.887800
H     7.996400    1.058800   16.826500
C     8.255700    0.009800   15.096900
H     8.655000   -0.748600   15.504800
C     8.095200    0.032900   13.701900
N     3.334000    2.144200   10.908200
C     5.064000    3.893200   11.387500
H     5.288800    4.011200   10.430500
H     5.164300    4.769400   11.836600
C     3.616800    3.412800   11.518500
H     3.391600    3.354400   12.480100
H     3.022900    4.093500   11.114700
C     4.252100    0.441900   12.547600
H     4.530800    1.112400   13.221600
H     3.972700   -0.377200   13.028700
C     3.060700    0.992900   11.742700
H     2.713600    0.266100   11.165900
H     2.342200    1.234900   12.379100
C     4.637600    1.227700    8.940100
H     4.553300    0.277600    9.206700
H     4.624000    1.265600    7.951300
C     3.433200    2.008600    9.485900
H     3.453100    2.916000    9.092200
H     2.609200    1.566200    9.161500
C     8.649200   -1.093500   12.898000
H     7.914000   -1.633200   12.540400
H     9.217500   -1.652300   13.467300
H     9.181000   -0.735200   12.157600
C     9.704000    0.351500    9.353500
H     9.409700    1.100900    8.793800
H    10.485500   -0.074700    8.944500
H     9.942000    0.683500   10.245100
C     9.828000    2.827300   12.229300
H     9.264400    3.216600   12.929200
H    10.750300    3.140000   12.340000
H     9.804800    1.849500   12.297800
Cl   13.703200    6.074800    8.134200
O    13.359600    5.906300    9.500000
O    14.534600    4.988800    7.689600
O    12.494300    6.111700    7.350600
O    14.369400    7.314500    7.958300
Cl   12.254800   -2.808200   10.538500
O    11.659400   -3.954100    9.980500
O    13.152700   -2.311000    9.631300
O    11.263900   -1.881300   10.881100
O    12.955600   -3.060000   11.748600

QM/MM links (counting starts at zero)
  1   50
  4   38
  5   44
 16   60
 26   64
 36   56
