78
QM: 37 at, MM: 41 at, Links: 6
Fe    6.705800    1.342900   11.080100
N     5.829500    1.717500    9.371300
N     8.093300    2.678100   10.312700
N     7.401600    1.063400   13.021900
N     5.909100    2.914600   11.924500
N     5.309900    0.116100   11.632200
N     7.409400   -0.386400   10.154200
C     5.384000   -1.084300   11.178800
H     4.747700   -1.746900   11.423700
C     6.480800   -1.385700   10.277600
C     6.575600   -2.625200    9.653700
H     5.886000   -3.270500    9.753000
C     7.695200   -2.901600    8.883300
H     7.791400   -3.734500    8.437700
C     8.665900   -1.923400    8.787000
H     9.454700   -2.098200    8.287700
C     8.509800   -0.670900    9.415000
C     6.462500    2.516200    8.583600
H     6.128500    2.720700    7.717800
C     7.704700    3.091800    9.065700
C     8.427700    3.976000    8.276200
H     8.121100    4.213700    7.408900
C     9.609200    4.506000    8.781500
H    10.132500    5.111000    8.269700
C     9.999800    4.126000   10.051800
H    10.794600    4.488600   10.424900
C     9.238200    3.208700   10.801000
C     6.214400    3.113200   13.153700
H     5.949200    3.906300   13.605900
C     6.979600    2.083700   13.827600
C     7.164300    2.131300   15.201200
H     6.882900    2.886800   15.704100
C     7.770300    1.048900   15.821500
H     7.913100    1.040500   16.761400
C     8.161900   -0.019700   15.031400
H     8.545300   -0.786600   15.441600
C     8.003300    0.009500   13.637300
N     3.227500    2.132800   10.889100
C     4.983300    3.883000   11.321900
H     5.187000    3.982700   10.358900
H     5.098100    4.765400   11.755200
C     3.535900    3.407600   11.495700
H     3.339200    3.348800   12.464600
H     2.933500    4.091500   11.110300
C     4.186900    0.431500   12.521600
H     4.474000    1.103500   13.189000
H     3.913300   -0.385700   13.009000
C     2.983500    0.980400   11.724300
H     2.636900    0.252000   11.150800
H     2.268500    1.212400   12.368600
C     4.530300    1.199200    8.907300
H     4.444300    0.252000    9.184600
H     4.507400    1.227600    7.917300
C     3.328300    1.995300    9.461000
H     3.357000    2.903900    9.067600
H     2.500100    1.561800    9.136600
C     8.548200   -1.129700   12.831300
H     7.807100   -1.632400   12.433100
H     9.068900   -1.722100   13.412400
H     9.125500   -0.780900   12.121100
C     9.627300    0.325300    9.291800
H     9.339200    1.071100    8.725700
H    10.408100   -0.108800    8.887600
H     9.864000    0.662500   10.180400
C     9.751600    2.797600   12.148600
H     9.204200    3.213200   12.847000
H    10.681800    3.089100   12.245600
H     9.704300    1.821400   12.232100
Cl   13.596200    6.066400    8.093500
O    13.282300    5.877800    9.484800
O    14.412100    4.956000    7.630500
O    12.372400    6.107200    7.324300
O    14.308900    7.304500    7.915900
Cl   12.111300   -2.837000   10.545600
O    11.494300   -3.993000    9.986800
O    13.054200   -2.331600    9.600000
O    11.148700   -1.841600   10.818400
O    12.802200   -3.135700   11.767300

QM/MM links (counting starts at zero)
  1   50
  4   38
  5   44
 16   60
 26   64
 36   56
