78
QM: 37 at, MM: 41 at, Links: 6
Fe    7.062400    1.373800   11.248000
N     6.316800    1.945000    9.346900
N     8.590600    2.882400   10.499800
N     7.706800    1.030800   13.378500
N     6.186500    2.975000   12.294400
N     5.588000   -0.070700   11.638300
N     7.839400   -0.511700   10.220300
C     5.759200   -1.224700   11.160300
H     5.142600   -1.898100   11.340700
C     6.918800   -1.507000   10.325700
C     7.066100   -2.731500    9.702700
H     6.409000   -3.385600    9.784000
C     8.201200   -2.966600    8.957800
H     8.320400   -3.778800    8.518800
C     9.132000   -2.002300    8.877900
H     9.909400   -2.157600    8.392800
C     8.952900   -0.770500    9.508000
C     7.003700    2.785200    8.697000
H     6.723100    3.062100    7.855100
C     8.237100    3.323200    9.264300
C     8.996700    4.221700    8.544200
H     8.734300    4.485700    7.691100
C    10.159600    4.725500    9.114200
H    10.692100    5.332100    8.652500
C    10.500700    4.307100   10.367200
H    11.272200    4.636800   10.768200
C     9.704200    3.391000   11.052600
C     6.465300    3.066400   13.524900
H     6.177300    3.803900   14.012300
C     7.231200    2.027100   14.174000
C     7.404800    2.033300   15.546700
H     7.088900    2.744500   16.056500
C     8.040600    0.990100   16.141400
H     8.178000    0.980000   17.060500
C     8.475400   -0.044000   15.359300
H     8.875300   -0.784400   15.755800
C     8.326200   -0.000400   13.977900
N     3.917000    2.083100   10.873900
C     5.247100    3.945300   11.722600
H     5.540500    4.206800   10.836500
H     5.212200    4.739400   12.277800
C     3.878300    3.312600   11.645200
H     3.560400    3.122200   12.542100
H     3.258700    3.933700   11.232900
C     4.364500    0.200800   12.399800
H     4.568400    0.770900   13.157200
H     3.994300   -0.631400   12.735000
C     3.350600    0.888600   11.495600
H     3.066000    0.271200   10.803100
H     2.571200    1.135000   12.015100
C     5.028300    1.494300    8.779500
H     4.943100    0.534600    8.894000
H     5.009700    1.687000    7.829300
C     3.868700    2.189000    9.457600
H     3.872200    3.126000    9.209900
H     3.038100    1.801300    9.140000
C     8.867100   -1.097800   13.127000
H     8.141700   -1.617300   12.774500
H     9.436200   -1.661800   13.655400
H     9.373000   -0.722400   12.402400
C    10.009900    0.283600    9.432800
H     9.695900    1.014900    8.895500
H    10.802800   -0.087200    9.038300
H    10.209300    0.600400   10.317100
C    10.125000    2.925400   12.394300
H     9.497700    3.236400   13.050900
H    10.996700    3.273200   12.595200
H    10.152100    1.965900   12.405400
Cl   14.107500    6.161600    8.188800
O    13.720800    5.938700    9.530800
O    14.924700    5.102400    7.714300
O    12.895200    6.199800    7.425000
O    14.741900    7.414600    8.052100
Cl   12.595100   -2.853700   10.557200
O    12.037800   -3.977700    9.942500
O    13.383000   -2.277700    9.683700
O    11.606800   -1.975600   11.012700
O    13.325900   -3.168500   11.725100

QM/MM links (counting starts at zero)
  1   50
  4   38
  5   44
 16   60
 26   64
 36   56
