79
QM: 33 at, MM: 46 at, Links: 2
C    11.874200    2.166400    2.908600
H    11.948000    1.647700    3.677000
C     9.507000    3.240000    0.410600
H     9.533000    3.739600   -0.373700
C    10.582000    2.338800    2.237600
C     8.294500    2.662400    0.791400
H     7.532300    2.773100    0.269100
C     9.415900    1.751300    2.685200
H     9.411700    1.244600    3.464400
C     8.248500    1.928700    1.952100
H     7.447500    1.554000    2.242100
C    11.370000    6.187700   -1.379500
C    13.918200    2.158600   -1.111400
C    14.355900    5.922900    2.240900
C    13.097200    6.039300    2.983300
H    13.051900    6.543900    3.763400
C    15.394700    5.056600    0.383600
H    15.360100    4.558500   -0.401900
C    15.527900    6.531200    2.665800
H    15.543900    7.032100    3.449500
C    16.596200    5.652700    0.739100
H    17.343500    5.560400    0.194300
C    16.678100    6.379300    1.898300
H    17.483000    6.761100    2.165700
Fe   12.443300    4.150200    0.826400
S    14.851000    1.039800   -1.868400
S    11.003900    7.253500   -2.562600
N    10.634000    3.110700    1.119900
N    14.280500    5.166200    1.125200
N    12.064000    5.435000    2.538000
N    12.892500    2.744600    2.410200
N    13.266400    2.942900   -0.586100
N    11.620400    5.442600   -0.525000
C    14.170600    2.622800    3.045900
C    14.339000    2.947700    4.384900
H    13.606400    3.196000    4.901000
C    15.603500    2.900800    4.949400
H    15.716300    3.133600    5.842700
C    16.712100    2.509400    4.193400
C    15.269800    2.265000    2.269000
H    15.159600    2.070600    1.366800
C    16.528100    2.198300    2.845000
H    17.257500    1.945700    2.328400
C    10.854800    5.487500    3.307000
C    10.881500    5.333600    4.692800
H    11.691400    5.211300    5.131900
C     9.641800    5.652200    2.642300
H     9.625100    5.740700    1.717300
C     9.699600    5.361700    5.412900
H     9.722100    5.266700    6.337600
C     8.469200    5.533900    4.761000
C     8.457400    5.683200    3.367300
H     7.649400    5.804500    2.924700
C     7.232500    5.586800    5.488000
C     6.169500    5.677700    6.042500
C     4.860900    5.842600    6.626800
C     2.455300    5.752000    6.378300
H     1.707300    5.554700    5.862600
C     3.728900    5.546200    5.860300
H     3.828400    5.208500    4.999000
C     4.699300    6.348100    7.926000
H     5.444500    6.546800    8.445200
C     2.300000    6.251600    7.660100
H     1.446800    6.389200    8.005100
C     3.419800    6.548200    8.432700
H     3.311700    6.883100    9.293900
C    19.085900    2.231000    5.316900
C    18.008700    2.384300    4.808500
C    20.375300    2.028000    5.917000
C    20.478800    1.660500    7.265000
H    19.713300    1.588100    7.787500
C    21.542200    2.181300    5.158800
H    21.486700    2.455200    4.271600
C    21.726300    1.403600    7.820900
H    21.794300    1.155200    8.714200
C    22.783300    1.925900    5.730900
H    23.556700    2.030900    5.226600
C    22.870400    1.517100    7.043600
H    23.700100    1.315600    7.410500

QM/MM links (counting starts at zero)
 29   43
 30   33
