81
QM: 67 at, MM: 14 at, Links: 0
Fe   15.188500    8.356900    6.012700
N    14.774500    6.856100    4.767400
N    16.191000    7.741400    3.138300
N    17.006800    8.469500    5.235200
N    17.891900    9.217600    7.302000
N    15.631600    9.847600    7.264100
N    14.510800    9.716000    4.705500
N    12.395900    8.709200    4.679500
N    13.357000    8.217500    6.788300
N    14.238400    7.725800    8.927200
N    15.842300    7.022200    7.358000
C    13.913400    5.868200    5.127200
C    13.338900    5.001800    4.227700
C    13.655900    5.131200    2.878400
C    14.602600    6.058900    2.508600
C    15.172600    6.877300    3.486100
C    17.254700    8.097100    3.953900
C    18.529500    8.084800    3.406200
C    19.598600    8.470600    4.177700
C    19.370700    8.863100    5.485000
C    18.082300    8.839600    5.984800
C    16.851500    9.942400    7.829800
C    17.100200   10.765200    8.931200
C    16.107600   11.572500    9.392900
C    14.878900   11.578100    8.749300
C    14.687200   10.710600    7.705800
C    15.305800   10.716200    4.239700
C    14.960800   11.552400    3.216300
C    13.716000   11.393000    2.618600
C    12.870400   10.439700    3.100300
C    13.283700    9.621200    4.157700
C    12.252500    8.387000    6.022700
C    10.963800    8.262100    6.524500
C    10.788000    8.007900    7.863700
C    11.891100    7.854000    8.667300
C    13.151300    7.939800    8.097600
C    15.380400    7.006600    8.615300
C    16.011900    6.298600    9.640800
C    17.099300    5.528100    9.350900
C    17.531200    5.456800    8.035700
C    16.879100    6.191500    7.084200
H    16.163600    8.087000    2.350700
H    18.497600    8.967900    7.857700
H    11.883300    8.302200    4.123800
H    14.201500    8.073600    9.712700
H    13.703800    5.772300    6.028700
H    12.748800    4.342900    4.515600
H    13.237200    4.601600    2.240800
H    14.858500    6.140200    1.619100
H    18.657700    7.817200    2.526600
H    20.461400    8.468300    3.825900
H    20.077100    9.140700    6.020700
H    17.932200   10.759700    9.344900
H    16.252100   12.116600   10.132500
H    14.201600   12.155600    9.019100
H    13.861800   10.603600    7.278100
H    16.134900   10.837700    4.643500
H    15.545200   12.213600    2.926400
H    13.462600   11.929300    1.903000
H    12.024300   10.333700    2.728500
H    10.228400    8.351300    5.962800
H     9.931700    7.941000    8.221600
H    11.794000    7.693400    9.578800
H    15.692400    6.353200   10.514300
H    17.541200    5.060900   10.022600
H    18.253400    4.918200    7.805800
H    17.163800    6.118000    6.202600
Cl   16.940600    8.081400    0.026000
Cl    7.514900    9.413900    2.012900
O    14.043800    7.835000   -0.841500
C    13.530600    8.701400    0.137900
H    14.784600    7.862900   -0.805600
H    12.488900    8.761600    0.000000
H    13.526300    8.360200    1.013500
H    13.740400    9.461800    0.064000
O    10.001100    8.221900    3.250200
C     9.999500    6.885100    2.856500
H     9.356800    8.743800    2.942400
H    10.712300    7.500500    2.060900
H     9.144900    6.811500    3.714000
H     9.679700    6.346500    2.682500

QM/MM links (counting starts at zero)
