97
QM: 28 at, MM: 69 at, Links: 6
Fe    4.304800    0.413700    2.950700
Cl    5.614800   -0.265400    1.231200
N     2.889200   -1.222000    2.838200
N     2.778200    1.396100    1.753700
N     2.859800    1.036700    4.535200
O     5.392300   -0.445700    4.338300
O     5.295900    2.077200    3.267100
C     2.217000   -0.960400    1.510100
H     2.830400   -1.207000    0.799200
H     1.440800   -1.537600    1.438300
C     1.797800    0.383100    1.296500
H     0.960900    0.527100    1.763700
H     1.634200    0.513400    0.350400
C     2.141300    2.406500    2.666400
H     2.740300    3.162800    2.763100
H     1.323000    2.728300    2.255900
C     1.834000    1.889400    3.972900
H     1.006000    1.386100    3.919500
H     1.686200    2.635700    4.575200
C     2.318200   -0.246700    4.994000
H     2.980500   -0.668600    5.563000
H     1.536100   -0.068900    5.539600
C     1.950200   -1.173200    3.974500
H     1.070500   -0.935300    3.640800
H     1.886800   -2.058500    4.365000
C     6.595100   -0.125200    4.631900
C     7.170400    1.125600    4.393300
C     6.471700    2.156100    3.752600
C     3.590600   -2.548000    2.794800
H     4.196800   -2.564300    2.050700
H     2.941800   -3.247900    2.693100
H     4.077900   -2.678200    3.609100
C     3.344700    2.089800    0.594000
H     3.979200    2.745900    0.892700
H     2.641200    2.524200    0.105100
H     3.785600    1.453700    0.025000
C     3.523900    1.707900    5.689800
H     4.200500    1.129400    6.050200
H     2.870100    1.898200    6.367200
H     3.926200    2.526700    5.394500
C     7.365300   -1.185700    5.354400
H     6.826100   -1.975800    5.432800
H     7.601300   -0.870200    6.230400
H     8.163600   -1.391100    4.862200
C     7.107500    3.513400    3.564100
H     6.492400    4.094400    3.110200
H     7.907900    3.423200    3.041800
H     7.325200    3.886500    4.421700
C     8.565800    1.388600    4.865500
C     8.768100    2.030900    6.110300
C     7.720200    2.416600    6.966300
H     6.843700    2.241300    6.712600
C     7.950500    3.038800    8.154300
H     7.240300    3.266700    8.709900
C     9.269000    3.335600    8.536400
H     9.422400    3.760100    9.349000
C    10.305300    3.020100    7.755500
H    11.167100    3.249200    8.019100
C    10.103000    2.335200    6.522400
C    11.159900    1.954500    5.701500
H    12.023400    2.166100    5.971800
C    10.999500    1.290900    4.531800
C    12.085900    0.855200    3.720900
H    12.954800    1.009200    4.011200
C    11.892300    0.232900    2.554600
H    12.626200   -0.018800    2.042300
C    10.579900   -0.050100    2.085700
H    10.454200   -0.494600    1.278100
C     9.508800    0.340600    2.834900
H     8.651000    0.154000    2.524500
C     9.653900    1.016700    4.066300
Cl   16.490800   -0.399400    3.150300
O    15.185400   -0.666100    3.136900
O    16.889800    0.802600    2.893300
O    17.156100   -1.257100    2.220900
O    17.092900   -0.827600    4.301600
C     3.745800   -0.534600    9.035300
C     2.369800   -0.657400    9.280600
H     1.960200   -0.055100    9.859600
C     1.619000   -1.635200    8.698200
C     2.222300   -2.518000    7.835600
H     1.708500   -3.169100    7.413400
C     3.591000   -2.455400    7.580300
C     4.326900   -1.443700    8.184300
H     5.237600   -1.378600    8.005800
C     4.558900    0.560900    9.684400
H     3.989000    1.095600   10.241700
H     4.950700    1.114400    9.005200
H     5.252800    0.169000   10.220000
C     0.137500   -1.784200    8.991900
H    -0.215300   -2.523000    8.491300
H    -0.322100   -0.979100    8.741600
H     0.011500   -1.944500    9.931300
C     4.273700   -3.463300    6.719300
H     3.628300   -4.089400    6.382300
H     4.934500   -3.932800    7.236600
H     4.702800   -3.018800    5.983500

QM/MM links (counting starts at zero)
  2   28
  3   32
  4   36
 25   40
 26   48
 27   44
