96
QM: 51 at, MM: 45 at, Links: 4
C     5.931600   34.628600   15.434200
C     6.274000   33.455000   16.142300
C     6.016200   32.132300   15.677800
H     6.455100   31.412700   16.117000
C     4.920900   30.495300   14.340000
C     5.579200   29.361000   14.742000
H     6.346600   29.438100   15.297100
C     5.135300   28.085100   14.345300
C     5.781200   26.898900   14.763300
H     6.532800   26.956900   15.342300
C     5.352400   25.682500   14.358600
H     5.810500   24.900800   14.642200
C     4.233000   25.569600   13.520000
H     3.931400   24.710500   13.244500
C     3.580500   26.679400   13.104700
H     2.828700   26.588700   12.531000
C     3.993500   27.967200   13.501400
C     3.345500   29.151000   13.066100
H     2.611300   29.089700   12.465800
C     3.760800   30.372800   13.500100
C     1.914400   31.694900   12.799900
H     1.407000   30.891200   12.814500
C     1.260800   32.865800   12.354000
C     1.930100   34.103200   12.187600
C     2.575800   34.750700   15.451500
H     2.837900   35.428600   14.837800
C     1.774300   35.107300   16.519000
H     1.487600   36.006800   16.628200
C     1.393500   34.136100   17.429500
H     0.857400   34.358500   18.181600
C     1.807600   32.838600   17.219200
H     1.543100   32.144200   17.814200
C     2.614600   32.561100   16.130300
H     2.909200   31.667200   16.006500
C     4.941100   32.706700   10.892400
H     4.008000   32.559400   10.787300
C     5.741500   32.688400    9.775600
H     5.365100   32.522300    8.919700
C     7.102900   32.912800    9.907400
H     7.670700   32.927600    9.146000
C     7.612800   33.115400   11.176000
H     8.544000   33.256300   11.302400
C     6.751500   33.111700   12.260800
H     7.113500   33.246400   13.128700
Fe    4.210100   33.129800   13.694700
N     5.217900   31.847400   14.684800
N     3.162400   31.622300   13.193900
N     3.005300   33.493300   15.234500
N     5.425900   32.925400   12.135700
O     5.268300   34.633300   14.340900
O     3.116100   34.339500   12.620500
C     6.393400   36.009100   15.893400
H     6.895800   36.441800   15.170600
H     6.968900   35.915400   16.680100
H     5.612200   36.555500   16.122300
C     6.907900   33.466300   17.498700
C     6.253300   34.254900   18.623500
C     4.927100   34.678300   18.545000
H     4.446200   34.546300   17.735600
C     4.292500   35.287700   19.619200
H     3.391100   35.574400   19.536600
C     4.969800   35.473000   20.802500
H     4.542100   35.898100   21.536000
C     6.297100   35.030700   20.918300
H     6.772800   35.151800   21.731600
C     6.910500   34.414600   19.826800
H     7.801900   34.096500   19.913300
C     1.282800   35.280300   11.499400
H     1.550600   36.108200   11.948000
H     0.308200   35.186400   11.539400
H     1.570300   35.309900   10.562300
C    -0.180600   32.704400   12.077100
C    -0.973700   31.876800   13.063500
C    -2.002400   31.024000   12.632200
H    -2.172300   30.918400   11.703100
C    -2.768500   30.337700   13.560000
H    -3.437700   29.732200   13.263100
C    -2.569400   30.523000   14.899100
H    -3.113900   30.060900   15.526000
C    -1.573200   31.383000   15.347600
H    -1.448100   31.526400   16.279400
C    -0.767400   32.031300   14.427800
H    -0.061800   32.589000   14.734000
O     7.841900   32.700000   17.764900
O    -0.772900   33.229800   11.133400
C     5.845900   26.101900   21.108700
H     5.906900   26.657900   20.340600
C     6.449900   24.836600   21.126000
H     6.931700   24.520200   20.369900
C     6.333800   24.065500   22.249400
H     6.752800   23.212900   22.302700
C     5.595600   24.554800   23.298300
H     5.484900   23.998800   24.062400
C     5.161400   26.519500   22.233400
H     4.774400   27.386900   22.229500
N     5.017100   25.768200   23.315600

QM/MM links (counting starts at zero)
  0   51
  1   55
 22   71
 23   67
