99
QM: 55 at, MM: 44 at, Links: 6
C     9.780400    6.366300    1.000400
C    10.725800    7.181400    1.681900
C    10.675600    7.439000    3.069900
H    11.370800    7.973100    3.435100
C     9.779700    7.413000    5.272300
C    10.712400    8.166900    5.893500
H    11.437000    8.515000    5.387000
C    10.642200    8.456100    7.274600
C    11.635000    9.191200    7.958800
H    12.372700    9.540500    7.473200
C    11.554900    9.410700    9.299200
H    12.235100    9.904300    9.741400
C    10.477200    8.910200   10.021200
H    10.436000    9.054300   10.958700
C     9.478000    8.218100    9.405600
H     8.740900    7.906600    9.916300
C     9.524500    7.958100    8.017500
C     8.535200    7.222000    7.344500
H     7.758700    6.948100    7.817500
C     8.664000    6.888800    6.015300
C     6.870700    5.338600    5.848800
H     6.769900    5.455400    6.786200
C     5.994000    4.430000    5.230300
C     6.002900    4.165600    3.833900
C    11.802100    7.820700    0.908100
C     5.020100    3.740900    6.082400
C     6.553900    7.278500    1.655300
H     6.473700    6.416900    1.263500
C     5.975300    8.344900    1.011600
H     5.565100    8.208500    0.165100
C     5.975600    9.618400    1.571300
C     6.607100    9.723500    2.820800
H     6.629600   10.559300    3.271400
C     7.197100    8.617200    3.398700
H     7.601300    8.717200    4.252200
C     9.562900    3.250200    2.962200
H     9.082600    3.319800    2.145000
C    10.385300    2.145000    3.155200
H    10.454100    1.488500    2.472400
C    11.105100    1.989600    4.329200
C    10.918700    2.982300    5.300300
H    11.366300    2.920500    6.135600
C    10.084700    4.049700    5.040000
H     9.974800    4.702200    5.721400
N     9.761800    7.009900    3.896800
N     7.803200    6.034800    5.272300
N     7.228600    7.396000    2.813800
N     9.413500    4.226000    3.880000
O     8.878100    5.701800    1.590900
O     6.854700    4.666200    3.023700
O    11.918200    7.858400   -0.298000
O    12.746900    8.402800    1.722400
O     4.227700    2.888200    5.760600
O     5.061500    4.188100    7.380900
Fe    8.321800    5.850600    3.446800
C     9.762300    6.233400   -0.500900
H    10.534500    5.704400   -0.792000
H     9.804400    7.123700   -0.908100
H     8.935500    5.785500   -0.779400
C    13.822300    9.080100    1.042400
H    14.111000    8.542800    0.263100
H    14.595100    9.171500    1.655300
C    13.384300   10.445900    0.577900
H    12.625400   10.354600   -0.035000
H    14.127100   10.887000    0.114700
H    13.115200   10.983200    1.351600
C     5.001200    3.276500    3.155200
H     5.073700    3.383300    2.184200
H     4.097700    3.521400    3.443500
H     5.177700    2.342300    3.395900
C     4.153700    3.527300    8.294600
H     3.293900    3.351700    7.837000
H     3.974900    4.119200    9.068400
C     4.742100    2.223600    8.781500
H     4.938800    1.647300    8.013300
H     4.100800    1.775700    9.370600
H     5.570200    2.402800    9.275400
C     5.459500   10.803500    0.860500
C     5.502900   10.851400   -0.534500
H     5.851700   10.113600   -1.022800
C     5.032600   11.983200   -1.218700
H     5.074100   12.012100   -2.167400
C     4.515000   13.053100   -0.527500
H     4.198000   13.816600   -0.996200
C     4.455700   13.008100    0.864700
H     4.089100   13.742400    1.343300
C     4.928400   11.898700    1.558700
H     4.891700   11.882900    2.507400
C    12.052200    0.875900    4.562900
C    11.712400   -0.431400    4.224300
H    10.863400   -0.622100    3.840900
C    12.617500   -1.445300    4.448100
H    12.372600   -2.338700    4.234000
C    13.867400   -1.202700    4.975600
H    14.480500   -1.915400    5.111400
C    14.218900    0.105900    5.304500
H    15.077600    0.292400    5.664100
C    13.314500    1.124400    5.105800
H    13.554400    2.011900    5.340800

QM/MM links (counting starts at zero)
  0   55
 23   66
 30   77
 39   88
 51   59
 53   70
