75
QM: 34 at, MM: 41 at, Links: 9
Fe    2.196000    0.176600    3.426200
C     1.907800   -0.988100    1.392100
C     0.960800    0.092000    1.807700
C     0.207800   -0.088300    2.988000
C     0.529900   -1.085700    3.956500
C     0.732600   -2.583500    3.712400
C    -0.252600   -3.196300    2.705100
C    -0.151800   -2.629500    1.283800
C     1.274900   -2.300100    0.826200
H     2.544300   -1.293600    2.318600
H     2.634300   -0.618300    0.666200
H     0.752300    0.918200    1.130200
H    -0.490600    0.695600    3.269400
H     0.049600   -0.892400    4.917000
H     1.750200   -2.831900    3.395500
H     0.598000   -3.085800    4.677700
H    -0.057000   -4.278200    2.658200
H    -1.283200   -3.085800    3.067200
H    -0.765700   -1.727900    1.185200
H    -0.562800   -3.369200    0.583700
H     1.932500   -3.153900    1.015400
H     1.266200   -2.176800   -0.261900
P     3.610500    1.459200    2.391400
O     4.792000    0.806000    1.505300
O     2.902100    2.340600    1.251500
O     4.347200    2.587200    3.240300
P     1.755600    1.783100    4.748800
O     2.901200    2.244900    5.749700
O     0.528400    1.396600    5.686600
O     1.364400    3.218300    4.150600
P     3.573300   -0.662400    4.868500
O     5.001700    0.040500    4.900800
O     3.304200   -0.736000    6.441700
O     3.867200   -2.189700    4.448100
C     5.467100   -0.425100    1.812500
C     3.606500    3.371100    0.541700
C     5.757300    2.767500    3.390600
H     4.799400   -1.140900    2.273400
H     6.282100   -0.248400    2.499700
H     5.839700   -0.818800    0.876400
H     4.349700    2.955200   -0.109900
H     2.874400    3.923100   -0.024300
H     4.086200    4.057400    1.225600
H     6.139300    3.382100    2.658200
H     5.914400    3.234900    4.310600
H     6.265000    1.856700    3.406800
C     3.249700    3.617600    6.037500
C     0.147700    2.228400    6.803900
C     0.240000    3.367400    3.271000
H     2.373800    4.173300    6.322100
H     3.707700    4.072100    5.167600
H     3.967500    3.586400    6.857200
H    -0.724200    1.788600    7.245300
H    -0.090500    3.229400    6.475700
H     0.955100    2.268800    7.536300
H     0.092500    4.427300    3.112500
H     0.443200    2.901800    2.307300
H    -0.647100    2.958900    3.725300
C     5.852500    0.217100    6.060100
C     2.137500   -1.394800    6.976900
C     4.860200   -2.968100    5.151400
H     5.951300   -0.691900    6.616300
H     6.819900    0.487600    5.688200
H     5.467300    1.008400    6.679400
H     2.278700   -1.426100    8.055400
H     2.041600   -2.397700    6.587200
H     1.243200   -0.822500    6.744100
H     5.854700   -2.603700    4.928300
H     4.756400   -3.991200    4.808600
H     4.698200   -2.927600    6.226700
B    -0.775400    5.763200    0.578800
F     0.513900    5.246100    0.759900
F    -1.709300    4.972000    1.257900
F    -1.079100    5.763200   -0.792300
F    -0.809600    7.073300    1.065500

QM/MM links (counting starts at zero)
 23   34
 24   35
 25   36
 27   46
 28   47
 29   48
 31   58
 32   59
 33   60
