90
QM: 61 at, MM: 29 at, Links: 2
Fe    3.385300    6.949600   11.173000
O     2.102100    7.566900   12.446200
O     2.350600    5.520600   10.520500
N     4.361300    5.666600   12.460300
N     2.676700    8.300800    9.790800
O    -1.875500   11.394200   12.398300
N     4.810500    8.217600   12.015200
O     1.481500    0.327100   12.149000
N     4.745400    6.675500    9.589300
C     5.491600    6.221800   13.132300
C     4.450500    7.417600    8.470800
C     3.344600    8.285800    8.532800
C     5.675100    7.616900   12.875900
C     1.689800    9.124300    9.999300
H     1.448600    9.685100    9.284500
C     0.940200    9.259500   11.205100
C     3.992100    4.452400   12.713900
H     4.459600    3.993600   13.388600
C     2.932000    3.747300   12.057400
C     2.162700    4.306000   11.003700
C     6.726100    8.322100   13.507000
C     1.178200    8.499300   12.361700
C    -0.098200   10.242600   11.191100
H    -0.261200   10.737200   10.407700
C     6.363100    5.562200   13.950800
H     6.262700    4.639600   14.099700
C     5.203300    7.297200    7.259300
C     5.777800    5.848400    9.554100
H     5.984400    5.341800   10.318800
C     7.597400    7.604700   14.360700
H     8.304800    8.055100   14.785000
C    -0.861000   10.471500   12.313800
C     4.930800    9.524200   11.791200
H     4.330000    9.942300   11.202500
C     1.176400    3.490400   10.417700
H     0.643200    3.836700    9.724700
C     2.705200    2.404500   12.470200
H     3.212700    2.036000   13.171100
C     7.422900    6.274400   14.576300
H     8.013000    5.817800   15.148700
C     6.822700    9.715700   13.239400
H     7.502300   10.229300   13.636900
C     3.007000    9.016600    7.424100
H     2.267700    9.596400    7.460900
C     5.928700   10.296500   12.409600
H     5.973900   11.220300   12.244100
C    -0.609500    9.718300   13.452100
H    -1.129600    9.871000   14.220600
C     0.355800    8.773300   13.497200
H     0.487700    8.287400   14.291200
C     1.752200    1.650600   11.848900
C     0.979000    2.205000   10.836100
H     0.308700    1.685300   10.430800
C     6.297800    6.406800    7.287400
H     6.833800    6.301200    6.523000
C     4.826400    8.089900    6.163300
H     5.328300    8.052900    5.368800
C     3.745100    8.913100    6.236500
H     3.489800    9.415300    5.484900
C     6.578200    5.706400    8.401700
H     7.312500    5.120100    8.411500
I    11.208800    8.974100    5.313200
I     6.467900   10.768900    8.701000
I     9.968100    6.291500   10.595300
F     7.701000    8.452300   10.412000
F    11.358100    7.073800    7.850900
F     8.685600   10.628900    6.373200
C     8.139000    9.566100    8.414400
C    10.060600    8.859500    7.070500
C     8.474100    8.603700    9.330100
C     9.557900    7.734700    9.162500
C    10.320600    7.892600    8.017200
C     8.968700    9.689400    7.291700
C     2.445000   -0.361800   12.926600
H     3.301500   -0.343300   12.470900
H     2.164700   -1.282800   13.048900
H     2.530300    0.067400   13.792100
C    -2.086900   12.214000   11.300900
H    -2.346900   11.673700   10.538700
H    -1.270300   12.694200   11.094100
H    -2.792900   12.848600   11.502900
S     7.091300   15.790400   11.449300
C     6.133500   14.494000   11.182600
N     5.445400   13.584100   11.037500
O     3.814400   11.785600    9.723100
H     4.318800   12.335700   10.086700
C     2.828000   12.458100    9.017400
H     2.655700   11.996700    8.182400
H     3.124000   13.363500    8.831800
H     2.015300   12.486200    9.546000

QM/MM links (counting starts at zero)
  5   77
  7   73
