88
QM: 59 at, MM: 29 at, Links: 2
Fe    5.369600    4.343400    2.954700
O     6.580400    3.860600    1.597900
O     6.505700    5.646300    3.664200
O     7.631900   10.758600    1.915800
O    10.759300    0.230400    1.609100
N     6.102600    3.101200    4.263400
N     4.068800    3.059700    2.185900
N     4.536700    5.563000    1.682300
N     4.067300    4.706000    4.412500
C     3.405000    5.018200    1.017000
C     3.203700    3.642700    1.291300
C     7.148900    2.350800    4.084800
H     7.448300    1.835800    4.824600
C     5.436100    3.110200    5.512500
C     4.328600    3.988500    5.558900
C     8.960100    1.308700    2.861000
H     9.161700    0.815000    3.646700
C     7.561900    2.984700    1.709000
C     7.887400    2.236400    2.863800
C     6.752300    6.831500    3.135300
C     4.985500    6.738900    1.370000
H     4.569400    7.194500    0.648200
C     6.063500    7.392500    2.038200
C     8.374500    2.757400    0.554200
H     8.194200    3.239700   -0.244400
C     7.775000    7.615700    3.735900
H     8.280200    7.257500    4.455600
C     3.035400    5.543500    4.413900
H     2.840900    6.033400    3.623200
C     3.550900    4.119500    6.725000
C     2.527100    5.685100    0.189900
H     2.629000    6.616800    0.032000
C     9.406200    1.858500    0.578100
H     9.929800    1.733000   -0.204300
C     6.365800    8.712800    1.592300
H     5.900700    9.078100    0.848000
C     8.039300    8.889100    3.283000
H     8.728000    9.394500    3.699300
C     2.171100    2.925600    0.658300
C     9.707900    1.121100    1.724500
C     7.316700    9.455200    2.223800
C     3.948500    1.761200    2.429200
H     4.536800    1.355000    3.055000
C     1.301800    3.626300   -0.208200
H     0.594700    3.165200   -0.644600
C     5.736600    2.366200    6.634900
H     6.474900    1.768000    6.618400
C     4.970000    2.485500    7.791200
H     5.187500    1.959500    8.551600
C     1.475900    4.971900   -0.419200
H     0.872700    5.432900   -0.991300
C     2.975200    0.964500    1.787800
C     3.895800    3.355200    7.850200
H     3.391300    3.433900    8.652100
C     2.463400    5.040600    6.678500
H     1.912900    5.167600    7.443100
C     2.219400    5.727400    5.550400
H     1.494200    6.340400    5.517500
C     2.088100    1.533400    0.924100
I     2.353300    0.531500    5.421200
I    -2.490400    2.301500    8.670700
I    -1.093100    5.022700    3.441200
F     1.177400    2.879000    3.700800
F    -2.581800    4.221600    6.139800
F     0.045600    0.627000    7.660300
C     0.387700    2.720200    4.748700
C     0.666400    1.728200    5.671400
C    -0.722300    3.566500    4.868200
C    -0.196500    1.591400    6.751700
C    -1.522600    3.400100    5.983700
C    -1.304100    2.413900    6.937300
C     6.662700   11.475700    1.154800
H     6.626100   11.112000    0.245400
H     6.913200   12.423000    1.117100
H     5.783500   11.387400    1.577800
C    10.988800   -0.623200    2.710500
H    11.715800   -1.244000    2.496400
H    10.173200   -1.129800    2.906600
H    11.236300   -0.087100    3.492800
S     1.482000   -4.156200    2.646000
C     2.640600   -3.059500    2.893400
N     3.489300   -2.284700    3.039700
O     5.009100   -0.465500    4.451900
H     4.514200   -1.079500    4.161600
C     6.198600   -1.012200    4.924500
H     6.921500   -0.819600    4.291200
H     6.097800   -1.982500    5.019500
H     6.415200   -0.619700    5.796100

QM/MM links (counting starts at zero)
  3   71
  4   75
