90
QM: 61 at, MM: 29 at, Links: 2
Fe    5.371300    4.358900    2.950100
O     6.498900    5.669200    3.660700
O     6.583600    3.873700    1.600900
O     7.595700   10.791000    1.927500
O    10.758000    0.224900    1.614900
N     6.102600    3.108900    4.267500
N     4.060000    4.710600    4.416800
N     4.530500    5.584300    1.676900
N     4.069300    3.076000    2.175300
C     3.404400    5.039700    1.013700
C     3.207200    3.660700    1.279800
C     4.325700    3.993300    5.565700
C     6.741300    6.857100    3.134100
C     7.883400    2.248500    2.863800
C     7.147300    2.353400    4.081700
H     7.443200    1.829500    4.817100
C     8.947900    1.309300    2.861000
H     9.137800    0.806100    3.644300
C     7.563900    2.991800    1.706500
C     4.974100    6.760700    1.374200
H     4.554000    7.219300    0.657300
C     5.431500    3.120300    5.515000
C     6.042200    7.413400    2.037300
C     7.750100    7.645100    3.738100
H     8.253000    7.291700    4.462600
C     7.286400    9.483300    2.235800
C     9.705300    1.123500    1.726200
C     2.525300    5.701100    0.183000
H     2.626200    6.632000    0.019700
C     3.027800    5.551600    4.421000
H     2.834600    6.047000    3.633000
C     6.337700    8.741000    1.600900
H     5.867900    9.109400    0.861500
C     2.170500    2.935400    0.651900
C     8.371300    2.761400    0.551900
H     8.187100    3.238200   -0.248800
C     3.948800    1.777700    2.413300
H     4.538600    1.366500    3.035200
C     1.296200    3.645700   -0.216800
H     0.589200    3.187300   -0.655000
C     3.550500    4.131300    6.727300
C     9.408200    1.863300    0.578700
H     9.937200    1.742300   -0.201200
C     5.745800    2.379600    6.632900
H     6.483400    1.780600    6.613100
C     8.009100    8.916200    3.287600
H     8.697300    9.422900    3.702700
C     4.984200    2.506100    7.795900
H     5.211700    1.991000    8.560900
C     2.975600    0.989300    1.774000
H     2.938600    0.054900    1.944000
C     2.090800    1.551200    0.919400
H     1.422500    1.019700    0.503000
C     2.216300    5.730100    5.554400
H     1.490100    6.341600    5.527100
C     2.467800    5.035000    6.680800
H     1.914800    5.153100    7.444900
C     3.909700    3.363400    7.852200
H     3.407800    3.438500    8.654900
C     1.471000    4.980200   -0.425200
H     0.866200    5.440500   -0.994900
I    -2.480000    2.313200    8.686000
I     2.342400    0.542800    5.412800
I    -1.109900    5.037000    3.450800
F     1.160300    2.881100    3.697300
F     0.056100    0.643600    7.663600
F    -2.582000    4.231500    6.158400
C     0.375100    2.737200    4.756100
C     0.666000    1.739300    5.671300
C    -0.731600    3.585600    4.878600
C    -1.296600    2.427300    6.945500
C    -0.202300    1.604400    6.754000
C    -1.519300    3.408600    5.993700
C     6.634000   11.504100    1.160200
H     6.631800   11.163300    0.240900
H     6.862300   12.456900    1.154500
H     5.746000   11.382500    1.555600
C    10.979100   -0.627800    2.707500
H    11.709600   -1.246300    2.495700
H    10.163700   -1.137000    2.894800
H    11.220300   -0.094900    3.493700
S     1.502200   -4.175600    2.646600
C     2.642500   -3.066300    2.900400
N     3.477500   -2.276000    3.051100
O     5.012800   -0.451700    4.436500
H     4.526000   -1.056400    4.115700
C     6.172700   -1.020700    4.961700
H     6.913900   -0.888800    4.332700
H     6.031900   -1.979200    5.103600
H     6.389800   -0.591200    5.815200

QM/MM links (counting starts at zero)
  3   73
  4   77
