84
QM: 61 at, MM: 23 at, Links: 2
Fe    8.363900    5.921900   10.807400
O     9.623400    5.217000   12.060200
O     9.477300    7.328700   10.206300
N     7.377200    7.272800   12.049300
N     8.977500    4.468600    9.440100
O    13.789800    1.637800   11.851600
N     6.841800    4.725300   11.664900
N     7.022700    6.222800    9.175700
O    10.283800   12.580300   11.584500
C     6.230000    6.759900   12.721400
C    10.023400    3.726300    9.590100
H    10.263100    3.193100    8.866700
C     5.988100    5.389400   12.499200
C    10.619000    4.377700   11.925300
C     7.188200    5.357700    8.139700
C    10.854300    3.638200   10.751500
C     8.823400    9.168900   11.599500
C     9.650900    8.560500   10.619300
C     8.219900    4.391800    8.244600
C     7.748400    8.503400   12.255200
H     7.270300    8.992000   12.885600
C     4.900000    4.726200   13.119400
C     5.352700    7.460200   13.514700
H     5.483800    8.370000   13.655300
C    12.743600    2.527700   11.795800
C    11.927400    2.697500   10.699700
H    12.075600    2.201900    9.927500
C    11.486500    4.165100   13.015800
H    11.358400    4.648300   13.800300
C     9.028400   10.520300   11.943000
H     8.488000   10.917400   12.587400
C     6.656300    3.434300   11.467200
H     7.240100    2.983700   10.899900
C     8.390700    3.492000    7.218100
H     9.055400    2.845200    7.279800
C    12.513500    3.264100   12.943600
H    13.067100    3.143800   13.680400
C    10.021800   11.260600   11.337700
C     6.089600    7.152100    9.085700
H     5.980600    7.751100    9.788800
C     4.031700    5.488300   13.927800
H     3.301100    5.082000   14.335900
C     6.368600    5.403500    6.976800
C     4.756400    3.347000   12.876800
H     4.060700    2.876800   13.276800
C     4.259000    6.814800   14.113200
H     3.678900    7.306200   14.648900
C    10.685500    9.332500   10.067200
H    11.265800    8.942100    9.455300
C     5.258400    7.262600    7.962400
H     4.609900    7.928300    7.933700
C     5.620700    2.709200   12.071100
H     5.533100    1.796000   11.916100
C     5.389500    6.406700    6.918200
H     4.838600    6.484800    6.173600
C    10.858700   10.633300   10.403900
H    11.545600   11.120000   10.008200
C     7.575200    3.541500    6.086700
H     7.706500    2.922800    5.404400
C     6.608600    4.460600    5.964000
H     6.086900    4.475300    5.193600
I     0.057300    3.869000    5.172700
I     4.874700    1.728500    8.227300
I     2.017100    6.587000   10.191700
F     2.517200    2.023300    6.064900
F     0.331300    5.867000    7.612100
F     4.144900    4.314500    9.816400
C     1.414200    3.955300    6.777800
C     1.333900    4.969400    7.722500
C     2.223300    5.106700    8.758500
C     2.436900    3.048000    6.946900
C     3.377000    3.135000    7.946100
C     3.250300    4.178900    8.817200
C    13.860100    0.642200   10.847000
H    13.923000    1.060500    9.984800
H    13.069900    0.097000   10.880100
H    14.633500    0.092700   10.992900
C     9.343700   13.288700   12.338300
H     8.493600   13.265800   11.892000
H     9.630400   14.199100   12.434600
H     9.259500   12.885600   13.205900
S    -1.915500    4.195600    2.654100
C    -2.800000    2.865200    2.913200
N    -3.435700    1.896600    3.093100

QM/MM links (counting starts at zero)
  5   73
  8   77
