84
QM: 61 at, MM: 23 at, Links: 2
Fe    6.428600    8.206400    2.861100
O     5.246000    6.973700    3.581500
O     5.222100    8.703700    1.520000
O     0.902200   12.119800    1.672000
N     5.755100    9.501000    4.150100
N     7.774200    9.418300    2.083200
O     4.076100    1.797000    2.056000
N     7.236700    6.947100    1.631300
N     7.719900    7.817400    4.312900
C     4.685100   10.207400    3.996700
H     4.416800   10.751100    4.727400
C     4.186700    9.500900    1.658400
C     4.956500    5.774600    3.092900
C     8.374800    7.422800    0.958100
C     5.681700    5.158100    2.028900
C     3.321600    9.676200    0.555100
H     3.490800    9.190200   -0.243500
C     2.771200   11.119600    2.859500
H     2.581900   11.613700    3.647900
C     8.625300    8.800700    1.205100
C     6.766800    5.767100    1.353100
H     7.179300    5.280200    0.648500
C     7.575300    8.650600    5.400000
C     3.881200   10.240200    2.839100
C     9.690000    9.462300    0.565900
C     1.963500   11.271700    1.757500
C     5.367000    3.817000    1.655700
H     5.840300    3.409900    0.940200
C     8.670800    6.896600    4.349600
H     8.787700    6.324400    3.600600
C     3.917300    5.031000    3.698200
H     3.395400    5.429600    4.384700
C     2.257000   10.517400    0.597100
H     1.697500   10.600800   -0.166200
C     6.532900    9.584200    5.336200
C     7.950900   10.720000    2.303000
H     7.366000   11.161300    2.907600
C     8.391000    8.551400    6.540000
C    10.534900    8.719900   -0.270100
H    11.263900    9.142900   -0.708600
C     4.401000    3.111800    2.303000
C     3.650400    3.744900    3.310000
H     2.942400    3.270400    3.730400
C     9.516700    6.736900    5.470600
H    10.169300    6.046900    5.474900
C     6.339700   10.451600    6.388000
H     5.634200   11.086300    6.352300
C     8.177500    9.459700    7.593100
H     8.727200    9.421200    8.366600
C     9.220100    6.724900    0.142500
H     9.073800    5.800700   -0.021200
C     7.179000   10.403400    7.510300
H     7.057900   11.026000    8.217900
C     9.405300    7.564800    6.544100
H     9.997400    7.482700    7.282300
C     9.834400   10.854700    0.830600
H    10.530400   11.354100    0.420800
C    10.308800    7.386900   -0.451900
H    10.905600    6.890300   -0.998800
C     8.953000   11.460800    1.684200
H     9.026300   12.392800    1.856000
I    14.697700   10.409300    8.359200
I    12.717600    7.512600    3.443000
I     9.739500   12.321600    5.389400
F    14.430300    8.343800    5.986300
F    12.143800   12.151900    7.485900
F    10.520700    9.715900    3.817600
C    13.406700    9.198100    5.869600
C    12.249900   11.116600    6.641800
C    11.291900   10.972100    5.666000
C    13.319600   10.232400    6.777500
C    12.493800    9.017500    4.861200
C    11.442300    9.894100    4.775700
C     0.767100   13.089300    2.699300
H     0.028800   13.695800    2.481300
H     1.598700   13.601200    2.776800
H     0.579600   12.639600    3.549900
C     5.007700    1.068100    1.260800
H     5.073000    1.480000    0.373700
H     4.702700    0.140900    1.167800
H     5.887100    1.080700    1.692300
S    16.637600   10.047300   10.917700
C    17.756200   11.192700   10.650700
N    18.583100   12.026500   10.466100

QM/MM links (counting starts at zero)
  3   73
  6   77
