90
QM: 61 at, MM: 29 at, Links: 2
Fe    5.447300    4.558100    2.901000
O     6.744600    3.884300    1.670100
O     6.450700    6.036800    3.509600
N     4.404300    5.867100    1.609400
N     6.139800    3.161500    4.317100
N     3.967400    3.298000    2.034300
O    10.650900    0.004000    1.725100
N     4.081700    4.802500    4.541600
O     7.221100   11.246000    1.917100
C     4.381000    4.065100    5.652600
C     3.098000    3.905500    1.191500
C     3.291400    5.306500    0.938800
C     7.857300    2.162800    2.903900
C     5.484800    3.187100    5.572100
C     7.106500    2.308800    4.106700
H     7.326300    1.741300    4.809400
C     4.754700    7.095100    1.375000
H     4.274300    7.552800    0.723200
C     5.808600    7.808300    2.021600
C     7.646700    2.932500    1.746300
C     6.607100    7.267200    3.053600
C     9.646700    0.938100    1.805600
C     8.875900    1.164300    2.915200
H     9.018000    0.660600    3.683900
C     2.044600    3.210300    0.560500
C     3.631000    4.175400    6.872300
C     2.407100    5.956000    0.120000
H     2.508100    6.867100   -0.035900
C     6.003400    9.159700    1.606600
H     5.481500    9.517100    0.924800
C     1.164900    3.934800   -0.276700
H     0.455200    3.495200   -0.686000
C     6.961100    9.931800    2.213600
C     3.831900    1.989500    2.263000
H     4.426200    1.569100    2.841400
C     5.840300    2.463100    6.693000
H     6.574900    1.892600    6.658600
C     7.590000    8.082800    3.631000
H     8.133400    7.742500    4.304600
C     8.464900    2.655000    0.615500
H     8.345700    3.142100   -0.168200
C     3.043500    5.616700    4.595200
H     2.825300    6.110600    3.838200
C     1.934600    1.824500    0.830100
H     1.253900    1.326100    0.439700
C     7.759500    9.383600    3.213100
H     8.421100    9.905500    3.606600
C     9.423200    1.681200    0.664900
H     9.938900    1.515000   -0.090400
C     2.820700    1.231900    1.654600
H     2.761500    0.319000    1.821500
C     2.546000    5.058200    6.856800
H     2.021000    5.155000    7.618500
C     1.344400    5.258500   -0.489900
H     0.757500    5.715200   -1.048000
C     5.108200    2.576600    7.881700
H     5.372300    2.087300    8.628200
C     2.251900    5.771600    5.750000
H     1.531700    6.360500    5.749600
C     4.023500    3.382200    7.967800
H     3.533800    3.413200    8.757700
I    -2.367900    2.562300    8.835500
I     2.318800    0.728200    5.403000
I    -1.187400    5.199400    3.520700
F     1.063000    3.024900    3.687500
F    -2.540700    4.454000    6.292100
F     0.145000    0.908000    7.758900
C     0.662300    1.929900    5.697800
C    -0.773400    3.762700    4.948100
C    -1.227300    2.670000    7.074200
C     0.317200    2.894600    4.785800
C    -1.502700    3.625900    6.108600
C    -0.149200    1.839000    6.844100
C     6.265800   11.949400    1.143500
H     6.136400   11.498500    0.306300
H     6.579800   12.841900    0.981700
H     5.432700   11.985000    1.620000
C    10.868100   -0.822000    2.822100
H    11.569500   -1.444700    2.619200
H    10.061900   -1.302100    3.024900
H    11.121900   -0.288300    3.578400
S     1.786300   -4.407700    2.632900
C     2.668200   -3.063900    2.901100
N     3.281000   -2.106100    3.055000
O     4.974900   -0.319000    4.369300
H     4.495600   -0.847000    3.964100
C     5.876900   -1.007800    5.114700
H     6.765600   -0.780400    4.832500
H     5.734900   -1.949800    4.999900
H     5.767300   -0.778500    6.041300

QM/MM links (counting starts at zero)
  6   77
  8   73
