87
QM: 61 at, MM: 26 at, Links: 2
Fe    6.424800    8.164700    2.930800
O     5.257300    6.894100    3.651700
O     5.216900    8.649000    1.577000
O     0.950800   12.157300    1.654200
O     4.081600    1.764000    1.997300
N     5.729200    9.442500    4.222100
N     7.230700    6.929100    1.675900
N     7.725100    7.789300    4.390000
N     7.763100    9.412100    2.170300
C     4.678300   10.179700    4.048500
H     4.410100   10.722400    4.767700
C     5.670700    5.123600    2.038800
C     6.748800    5.756300    1.365600
H     7.142000    5.298900    0.644300
C     4.991400    5.712700    3.132100
C     8.371300    7.446600    1.002100
C     6.463000    9.490400    5.436200
C     8.603000    8.800300    1.268900
C     3.896600   10.240300    2.865300
C     4.206100    9.491500    1.701500
C     7.525500    8.572800    5.497000
C     2.010800   11.294700    1.754000
C     2.798500   11.141900    2.862600
H     2.608900   11.641800    3.635900
C     4.401700    3.073700    2.280600
C     3.356400    9.664500    0.586100
H     3.520200    9.167600   -0.195200
C     8.705900    6.901500    4.406500
H     8.849300    6.365500    3.648700
C     5.361000    3.799900    1.625500
H     5.817600    3.419700    0.896900
C     3.965500    4.942700    3.747200
H     3.463800    5.313800    4.450100
C     8.328900    8.466800    6.648400
C     9.658200    9.509000    0.646900
C     7.930000   10.702400    2.423000
H     7.358100   11.121200    3.041800
C     6.222500   10.318000    6.503300
H     5.526800   10.947800    6.463500
C     9.225200    6.762600    0.164500
H     9.097500    5.845000    0.003600
C     2.301600   10.533300    0.612300
H     1.760200   10.623400   -0.151100
C     9.363100    7.499800    6.641500
H     9.915800    7.386700    7.393100
C     3.698500    3.667800    3.328400
H     3.020500    3.178100    3.758100
C     7.023500   10.219700    7.658800
H     6.851400   10.785900    8.390000
C     9.791600   10.878500    0.934400
H    10.473400   11.383000    0.530500
C     8.043900    9.319900    7.734800
H     8.562200    9.268100    8.518100
C    10.512100    8.780400   -0.225300
H    11.229100    9.213100   -0.650600
C     8.929800   11.466700    1.801000
H     9.001900   12.385600    1.983700
C     9.543200    6.737900    5.528800
H    10.230700    6.097600    5.509200
C    10.289700    7.447800   -0.445100
H    10.866100    6.978500   -1.020500
I    14.598100   10.304800    8.535800
I     9.619700   12.175900    5.579000
I    12.783300    7.522100    3.489200
F    12.049800   12.038900    7.653000
F    14.442800    8.324400    6.072900
F    10.544800    9.707200    3.876500
C    13.273900   10.178300    6.906900
C    12.518500    9.003300    4.922000
C    12.197900   11.036600    6.765900
C    11.255400   10.902400    5.761000
C    13.406600    9.178600    5.964200
C    11.443700    9.873200    4.866800
C     4.973400    1.058200    1.141700
H     5.006900    1.497200    0.277000
H     4.661100    0.147100    1.029800
H     5.860100    1.050800    1.534600
C     0.756300   13.063600    2.717400
H    -0.020300   13.614900    2.534300
H     1.539700   13.628100    2.808800
H     0.615600   12.570300    3.541000
S    10.334400   16.403200    2.617200
N     8.278700   14.552800    3.058800
C     9.136100   15.318700    2.887400
O     6.371000   12.997000    4.453500
H     6.836000   13.553000    4.009000
H     5.687000   13.389100    4.770300

QM/MM links (counting starts at zero)
  3   77
  4   73
