153
QM: 49 at, MM: 104 at, Links: 5
Fe    8.245600    5.372500   16.900600
O     8.710200    7.168600   17.539700
O     7.830900    5.690900   15.064400
O     9.950100    4.560900   16.921100
N     6.245500    6.131200   17.375400
N     7.957100    4.706300   18.964200
O     7.296800    3.392900   16.614400
C     6.900300    5.513800   19.632600
H     7.258400    6.437500   19.771300
C     5.718900    5.605600   18.655300
H     5.374400    4.681000   18.495300
C    10.603900    3.773400   17.771500
C    11.675200    2.997400   17.328200
C    10.829500    2.841000   20.009900
H    10.531100    2.782800   20.909700
C    11.896200    2.016100   19.585600
C    10.215500    3.719800   19.161700
C    13.658100    0.428300   20.083600
H    14.106200   -0.143900   20.695600
C    12.353300    2.133200   18.234500
C    14.107600    0.532400   18.748100
H    14.859500    0.025000   18.464800
C    12.573200    1.154000   20.491100
H    12.269400    1.082600   21.388200
C    13.477700    1.353200   17.859300
H    13.798200    1.403900   16.965900
C     9.249200    4.729800   19.705100
H     9.081300    4.539200   20.662800
H     9.648700    5.634300   19.638100
C     5.722700    6.832100   15.071100
C     4.915100    7.783100   14.511100
H     4.074500    7.962300   14.914300
C     6.542700    8.207400   12.751800
C     7.014200    6.562000   14.503100
C     4.457400    9.513300   12.824600
H     3.627800    9.716700   13.242800
C     6.068100    9.905500   11.093500
H     6.333100   10.388400   10.319400
C     5.278700    8.504500   13.364500
C     6.886600    8.939400   11.586400
H     7.705100    8.750900   11.140900
C     7.383000    7.222000   13.325800
C     4.837500   10.206500   11.703100
H     4.274300   10.882800   11.341900
C     5.266200    6.047000   16.275000
H     4.395000    6.397800   16.583500
H     5.141400    5.098200   16.019800
H     6.437100    6.998600   17.424700
H     7.713400    3.875800   18.923600
Br    8.629500    9.020000   19.968100
C     6.480500    4.969500   20.978100
C     6.041700    5.305400   23.319900
H     6.034800    5.880500   24.075600
C     5.643600    3.163200   22.337700
H     5.359200    2.261200   22.419500
C     6.066700    3.643200   21.122100
H     6.079200    3.064400   20.367800
C     5.633900    3.998500   23.447300
H     5.345300    3.669300   24.289800
C     6.462100    5.786600   22.086900
H     6.739600    6.692000   22.006500
C     3.396100    5.838400   19.606200
H     3.311500    4.893800   19.566000
C     4.690500    7.829700   19.282100
H     5.504800    8.252300   19.035000
C     2.438900    7.979000   20.099500
H     1.698100    8.502600   20.380900
C     3.627800    8.602300   19.719600
H     3.706900    9.547700   19.760400
C     2.339000    6.601000   20.066700
H     1.541300    6.176700   20.361300
C     4.585100    6.443300   19.198900
C    10.063500    8.720400   18.748100
C    10.963900    7.554300   16.854700
H    10.884800    6.929800   16.142200
C    12.201400    8.248100   17.043500
C    12.324900    9.183900   18.089800
C     9.884600    7.774000   17.687800
C    14.615300    9.585300   17.477200
H    15.438000   10.037900   17.617000
C    11.222000    9.405200   18.931700
H    11.287200   10.040000   19.635900
C    13.563700    9.860600   18.283400
H    13.652500   10.503100   18.978200
C    14.515400    8.642400   16.435000
H    15.268700    8.452600   15.888700
C    13.311200    7.990700   16.209900
H    13.233600    7.369900   15.495500
C    10.250800   10.097000   12.497700
H    10.625400    9.902300   11.645600
C    10.216200   11.403200   12.931200
H    10.563000   12.096800   12.384100
C     9.676500   11.697600   14.158300
H     9.639000   12.597500   14.457600
C     9.181200   10.661000   14.966700
H     8.812200   10.859800   15.818800
C     9.752800    9.053100   13.274300
C     9.229800    9.348500   14.520300
H     8.903800    8.648600   15.073800
C    10.003900    5.163500   11.430400
C     9.795800    7.676800   12.737900
C    11.033300    7.203700   12.189500
H    11.807400    7.749600   12.257400
C    11.123500    6.002100   11.580500
H    11.965500    5.715700   11.245800
C     7.656600    4.724600   11.882900
H     6.832500    4.968900   12.288000
C     8.774700    5.568600   12.026500
C     8.690100    6.847600   12.702000
C     7.738400    3.551200   11.163800
H     6.965700    3.008000   11.057900
C     8.956500    3.153000   10.588100
H     9.010600    2.336300   10.105300
C    10.060800    3.939000   10.721600
H    10.882100    3.661000   10.332500
C    11.398100    2.537600   14.874100
C     9.095200    1.980700   14.099100
H     9.211700    2.626300   13.411000
C    10.120400    1.790000   15.044000
C     9.894300    0.862200   16.053700
H    10.563000    0.713400   16.712500
C     8.695700    0.142700   16.114200
H     8.555500   -0.477700   16.819500
C     7.717600    0.323800   15.164900
H     6.911600   -0.177300   15.200500
C     7.927100    1.254900   14.147600
H     7.258400    1.389300   13.485300
C    14.081200    4.506200   16.614100
H    13.821800    4.422400   17.525200
C    12.983800    3.377700   13.235200
H    13.269600    3.441900   12.331700
C    13.304300    3.872300   15.611700
C    11.876800    2.663600   13.535600
H    11.403700    2.232000   12.834200
C    15.193800    5.234700   16.299700
H    15.703000    5.638500   16.992100
C    13.724700    4.029400   14.249800
C    15.596100    5.391500   14.953200
H    16.368900    5.903400   14.741700
C    14.873400    4.807400   13.966700
H    15.143900    4.923000   13.063600
C    12.113600    3.112600   15.903400
O     7.495600    1.585400   18.763900
C     9.607100    8.402500    6.452100
H     9.719500    9.324500    6.141800
H     8.906500    8.369100    7.135900
H     9.353200    7.830900    5.696100
O    11.785200    7.624800    6.283800
C    11.038800    7.789200    8.464400
H    11.575700    6.994400    8.667600
H    10.155100    7.701600    8.879500
H    11.486900    8.586100    8.818300
C    10.887600    7.916400    7.031100

QM/MM links (counting starts at zero)
  1   77
  7   50
  9   71
 12  141
 41  108
