63
QM: 19 at, MM: 44 at, Links: 0
Fe   -1.445700   11.485600   26.103600
O    -0.485800   10.173200   27.274500
O    -0.741900   13.033600   27.189600
O     1.318700    8.890600   27.342700
C     0.612300    9.725200   26.806700
O     2.078600   10.008600   24.920300
C     1.056700   10.377300   25.445800
O    -0.599200   15.259700   27.200000
C    -1.017300   14.193300   26.744100
O     0.201700   11.229700   24.986400
O    -2.149500   13.033600   25.017700
O    -2.292200   15.259700   25.007300
C    -1.874200   14.193300   25.463200
O    -2.405600   10.173200   24.932800
O    -4.210100    8.890600   24.864600
C    -3.503700    9.725200   25.400600
O    -4.970000   10.008600   27.287000
C    -3.948100   10.377300   26.761500
O    -3.093200   11.229700   27.220900
N     3.708900    7.943100   26.103600
S     7.746800    9.701000    1.519200
S     6.808200    7.536700   -2.139800
S     5.395800    8.164700    0.652600
S     9.200500    9.040100   -1.313900
S    10.752700    8.441400   -3.742600
S     6.686100   10.325600    4.215900
S     3.853700    8.575800    3.107000
S     7.932700    6.729700   -4.778400
C     9.271500    8.228500   -2.854000
C     6.423800    9.576500    2.641700
C     7.602700    8.468400   -0.904900
C     5.344800    8.884700    2.244900
C     7.002600    8.736000    0.288900
C     8.171900    7.526800   -3.233400
C     5.103600   10.155300    4.998000
C     4.332300    8.997700    4.796100
C    10.301600    7.998600   -5.426100
C     9.001400    7.790400   -5.795000
S    13.304900    6.448000   -1.721400
S    11.926700    7.084900    1.073700
S     9.489600    5.657100    0.261700
S    10.905300    4.982500   -2.608600
S     8.030200    6.105300    2.768000
S    14.819600    6.002000   -4.206500
S    10.984200    7.759100    3.785700
S    11.919100    4.341400   -5.276800
C    13.352700    5.726900   -3.296000
C     9.506800    6.361200    1.869000
C    10.634100    7.005400    2.251900
C    11.689900    5.875500   -1.343500
C    12.256300    5.064800   -3.734600
C    11.080700    6.178800   -0.153100
C     9.311300    7.903400    4.486300
C    13.452000    4.664400   -6.205700
C     8.519800    6.603000    4.444600
C    14.122200    6.026200   -5.854200
C     3.708900   13.063400   26.103600
F     3.708900   16.740500   26.103600
C     3.708900   15.426300   26.103600
C     4.586700   15.045700   25.518900
C     4.707400   13.440000   25.386700
C     2.831200   15.045700   26.688400
C     2.710500   13.440000   26.820600

QM/MM links (counting starts at zero)
