84
QM: 36 at, MM: 48 at, Links: 3
Fe    7.372300    2.393900    5.990800
O     6.271900    4.246200    5.383300
N     7.731800    1.549900    3.794200
N     8.512500    0.629600    6.381000
O     5.322600    2.514100    6.315800
N     8.276200    2.819700    8.166900
N     9.324200    3.066100    5.566900
C     8.210600    0.155900    4.035700
H     8.758600   -0.136200    3.264700
H     7.429000   -0.448500    4.098500
C     9.028300    0.036100    5.294800
C    10.252600   -0.611100    5.327800
H    10.600000   -1.033500    4.551000
C    10.960800   -0.628500    6.522500
H    11.801600   -1.068000    6.571900
C    10.440600   -0.006700    7.635000
H    10.910200   -0.020500    8.461000
C     9.219900    0.638700    7.529400
C     8.619900    1.446500    8.639100
H     7.802700    0.996800    8.970600
H     9.263300    1.506500    9.389200
C     9.543300    3.571800    7.949100
H    10.209000    3.266700    8.615200
H     9.372000    4.532400    8.117100
C    10.141500    3.424700    6.569700
C    11.486100    3.680300    6.350500
H    12.054400    3.936900    7.066900
C    11.983800    3.553800    5.064900
H    12.891200    3.766300    4.881900
C    11.150300    3.114700    4.045800
H    11.484700    2.994900    3.164600
C     9.828600    2.856100    4.336800
C     8.869200    2.362800    3.274800
H     8.503400    3.145400    2.791500
H     9.374700    1.817400    2.621300
C     5.242400    3.667000    5.797600
C     6.587200    1.515100    2.760800
C     5.348300    0.894900    3.412500
H     5.066200    1.448400    4.170300
H     5.562900   -0.007500    3.729000
H     4.623100    0.846600    2.755100
C     6.963900    0.684200    1.528300
H     7.028700   -0.261100    1.779000
H     7.827500    0.989600    1.179900
H     6.276500    0.792800    0.838400
C     6.224300    2.932900    2.310000
H     5.361400    2.917300    1.845700
H     6.915900    3.269700    1.702800
H     6.163400    3.519100    3.093000
C     7.394200    3.540700    9.191900
C     6.951600    4.876500    8.607400
H     6.504400    4.725000    7.748400
H     7.735400    5.448900    8.470800
H     6.330900    5.314400    9.226100
C     8.141300    3.781000   10.513000
H     7.542000    4.221200   11.151900
H     8.920000    4.352600   10.348900
H     8.437700    2.922800   10.881800
C     6.151400    2.701300    9.474700
H     5.503200    3.237000    9.978300
H     6.402200    1.913200   10.000300
H     5.750600    2.415200    8.627500
C     3.905300    4.324000    5.665700
C     2.789200    3.780400    6.298400
H     2.876800    3.004000    6.838600
C     1.545400    4.382100    6.134200
H     0.782800    4.019800    6.569500
C     1.416900    5.498400    5.344100
H     0.562000    5.895700    5.226200
C     2.523900    6.051100    4.716800
H     2.429300    6.825600    4.174800
C     3.773700    5.463300    4.887700
H     4.537800    5.843500    4.470000
Cl   11.036700   -1.096100    1.120400
O    10.579800   -1.919100    2.174400
O    12.270600   -1.601300    0.623200
O    11.216700    0.239700    1.620300
O    10.094800   -1.098700    0.052300
N    14.018200   -4.058800   -2.336200
C    12.985500   -3.583600   -2.426900
C    11.657900   -2.994100   -2.561800
H    11.635100   -2.419600   -3.355800
H    11.455300   -2.459700   -1.766100
H    10.992000   -3.706900   -2.655500

QM/MM links (counting starts at zero)
  2   36
  5   49
 35   62
