77
QM: 37 at, MM: 40 at, Links: 6
Fe   -0.711100    2.391100    4.520100
O    -1.849000    3.828500    3.541200
O    -3.111000    0.561800    3.159800
O     1.708200    4.539400    5.280600
O     0.769800    2.211300    3.116700
N    -2.322100    5.454200    2.061600
N    -0.063800    0.673400    5.791700
N    -1.894900    0.703800    3.844300
N    -1.827200    2.933600    6.369600
N     0.448100    3.960800    5.487900
N     1.943900    1.884500    1.236900
C    -1.666600    4.382700    2.439900
H    -1.023600    4.012000    1.847300
C    -0.281600   -0.594200    5.047900
H    -0.338300   -1.352300    5.681700
H     0.476800   -0.758600    4.433200
C    -1.555700   -0.483900    4.268100
C    -3.446800   -0.743400    3.212200
H    -4.230800   -1.113200    2.823400
C    -2.520300   -1.452500    3.890400
H    -2.515300   -2.384900    4.071800
C    -0.943200    0.704400    6.992600
H    -0.517500    0.192800    7.726300
H    -1.807500    0.271300    6.778200
C    -1.192300    2.130300    7.450300
H    -1.781700    2.122800    8.244900
H    -0.332700    2.547900    7.710600
C    -1.616100    4.377600    6.632900
H    -1.782700    4.569400    7.590100
H    -2.255100    4.911000    6.095500
C    -0.215200    4.765800    6.278700
C     1.734100    5.689700    5.980600
H     2.477800    6.278900    6.018700
C     0.561300    5.894700    6.620500
H     0.316700    6.628200    7.172800
C     0.931900    1.629700    2.022600
H     0.295800    0.977600    1.753000
C    -2.061600    6.084000    0.770900
H    -1.411000    5.547200    0.270600
H    -1.701300    6.984900    0.913200
H    -2.896400    6.143100    0.261900
C    -3.282600    6.085700    2.955700
H    -3.909700    5.411300    3.289600
H    -3.776200    6.777900    2.468900
H    -2.807200    6.493400    3.710400
C     1.359800    0.763400    6.194500
H     1.602200   -0.028800    6.717100
H     1.495300    1.567500    6.738000
H     1.923100    0.812300    5.393600
C    -3.282200    2.666300    6.291900
H    -3.717200    2.986700    7.110000
H    -3.432700    1.703000    6.198500
H    -3.658900    3.132600    5.517500
C     2.091700    1.230800   -0.054800
H     1.428000    0.514400   -0.136200
H     2.992500    0.851500   -0.127500
H     1.955100    1.886600   -0.770000
C     2.892400    2.928800    1.604300
H     2.425300    3.788700    1.660500
H     3.596800    2.984200    0.925400
H     3.291900    2.716200    2.474200
S    -1.425000    2.751200   -1.437000
F    -1.856400    3.534200   -3.889000
F    -1.144800    5.095900   -2.589400
F     0.215400    3.595900   -3.300800
O    -2.792600    3.095200   -1.153600
O    -0.467600    3.158900   -0.442500
O    -1.232600    1.417500   -1.954500
C    -1.031300    3.798300   -2.875800
S     4.984900    7.969800    7.296300
F     3.636700   10.141000    6.674800
F     2.398500    8.461400    7.188400
F     3.425000    9.537000    8.725400
O     6.106800    8.861000    7.424200
O     4.778800    7.420700    5.976600
O     4.829800    7.036100    8.377800
C     3.546300    9.080300    7.480600

QM/MM links (counting starts at zero)
  5   37
  5   41
  6   45
  8   49
 10   53
 10   57
