87
QM: 13 at, MM: 74 at, Links: 0
Fe    8.963000    5.173800    1.969500
C     8.637400    3.572600    3.034700
N     8.409000    2.593400    3.596300
C    10.171200    4.227600    0.796800
N    10.876000    3.716000    0.043100
C    10.511600    5.693900    3.034700
C     7.737300    6.256300    3.034700
N    11.473700    5.985800    3.596300
N     7.003500    6.943700    3.596300
C     9.177400    6.694700    0.796800
C     7.537800    4.600500    0.796800
N     9.268100    7.560900    0.043100
N     6.742300    4.246000    0.043100
C    10.294900    0.937300    6.258100
N    10.421600    0.167200    5.197200
H    10.064400   -0.636400    5.210600
C    11.135300    0.602800    3.999500
H    10.495500    1.004300    3.361200
H    11.553900   -0.180100    3.561000
C    12.224600    1.635300    4.353500
C    11.534200    2.724600    5.181300
H    12.212700    3.360700    5.519900
H    10.903300    3.225600    4.606800
N    10.811400    2.144500    6.303600
H    10.717800    2.618700    7.038500
C    13.324500    0.922400    5.155500
H    12.899200    0.492100    5.939400
H    13.694100    0.198700    4.589500
C    14.481400    1.759800    5.654200
H    14.163700    2.356400    6.377800
H    14.814400    2.328400    4.915100
C    15.633800    0.894600    6.184000
H    15.297400    0.293400    6.880900
H    16.329800    1.473100    6.558700
H    16.009000    0.364800    5.449200
C    12.730900    2.300300    3.068300
H    11.951900    2.676100    2.585100
H    13.315900    3.058000    3.320700
C    13.498700    1.400200    2.110400
H    14.306200    1.054000    2.567800
H    12.933200    0.625600    1.867500
C    13.917200    2.122000    0.848500
H    13.118700    2.381200    0.341100
H    14.473800    1.530500    0.302400
H    14.427200    2.924500    1.085400
C     9.593400    0.444600    7.463200
C     9.876400   -0.831100    7.966200
H    10.497300   -1.395500    7.519200
C     8.678200    1.264200    8.110100
H     8.484400    2.125100    7.760400
C     7.629300   -0.937300   10.969900
N     7.502600   -0.167200   12.030800
H     7.859800    0.636400   12.017400
C     6.788900   -0.602800   13.228500
H     7.428700   -1.004300   13.866800
H     6.370300    0.180100   13.667000
C     5.699600   -1.635300   12.874500
C     6.390000   -2.724600   12.046700
H     5.711500   -3.360700   11.708100
H     7.020900   -3.225600   12.621200
N     7.112800   -2.144500   10.924400
H     7.206400   -2.618700   10.189500
C     4.599700   -0.922400   12.072500
H     5.025000   -0.492100   11.288600
H     4.230100   -0.198700   12.638500
C     3.442800   -1.759800   11.573800
H     3.760500   -2.356400   10.850200
H     3.109800   -2.328400   12.312900
C     2.290400   -0.894600   11.044000
H     2.626800   -0.293400   10.347100
H     1.594400   -1.473100   10.669300
H     1.915200   -0.364800   11.778800
C     5.193300   -2.300300   14.159700
H     5.972300   -2.676100   14.642900
H     4.608300   -3.058000   13.907300
C     4.425500   -1.400200   15.117600
H     3.618000   -1.054000   14.660200
H     4.991000   -0.625600   15.360500
C     4.007000   -2.122000   16.379500
H     4.805500   -2.381200   16.886900
H     3.450400   -1.530500   16.925600
H     3.497000   -2.924500   16.142600
C     8.330800   -0.444600    9.764800
C     8.047800    0.831100    9.261800
H     7.426900    1.395500    9.708800
C     9.246000   -1.264200    9.117900
H     9.439800   -2.125100    9.467600

QM/MM links (counting starts at zero)
