92
QM: 61 at, MM: 31 at, Links: 2
Fe    2.023400   13.600000    3.541500
O     0.327300   13.222800    4.335100
O    -2.061600   12.156900    4.466900
O     3.719700   13.980700    2.736100
O     6.093000   15.060700    2.688700
N     1.854700   15.540600    4.315900
N     3.113800   13.276000    5.392300
N     2.211200   11.664700    2.764200
N     0.939300   13.982400    1.670100
C    -0.686100   14.053300    4.518700
C    -0.527400   15.425500    4.727500
C    -1.643000   16.231100    4.974700
C    -2.896900   15.714100    5.010300
C    -3.075900   14.338300    4.834100
C    -2.011800   13.513200    4.610500
C     0.753600   16.034600    4.754100
C     3.104900   16.266500    4.619400
C     3.717200   15.655600    5.894200
C     4.210500   14.221500    5.752000
C     3.299100   11.937400    5.932700
C     2.351600   12.813800    6.570800
C     4.741900   13.160900    2.604300
C     4.604200   11.767400    2.432600
C     5.732200   10.975900    2.212000
C     6.975500   11.516000    2.194200
C     7.142400   12.868700    2.354100
C     6.051600   13.699100    2.552500
C     3.311000   11.154800    2.367400
C     0.958200   10.960000    2.404500
C     0.379100   11.588600    1.137100
C    -0.125400   12.987400    1.305900
C     0.669600   15.340500    1.239200
C     1.671900   14.541900    0.534500
H    -1.520300   17.169500    5.134600
H    -3.654300   16.286000    5.148000
H    -3.960200   13.966500    4.872600
H     0.744700   16.719800    5.303400
H     3.719100   16.169100    3.886500
H     2.917000   17.197800    4.758600
H     3.049500   15.673400    6.584100
H     4.460100   16.202800    6.154800
H     4.601700   13.950600    6.584100
H     4.877300   14.194900    5.060600
H     2.983200   11.179600    5.435200
H     4.119200   11.710700    6.375400
H     1.409000   12.647400    6.496800
H     2.544400   13.178600    7.438400
H     5.627600   10.034000    2.059500
H     7.743200   10.885600    2.077200
H     8.025100   13.245900    2.327500
H     3.252500   10.287200    1.835900
H     1.145700   10.032200    2.247500
H     0.326700   11.041500    3.124000
H    -0.352400   11.039700    0.845400
H     1.063800   11.592100    0.464900
H    -0.526500   13.260000    0.478200
H    -0.788600   12.989100    1.998800
H    -0.165600   15.556500    0.818800
H     0.953700   16.077000    1.785600
H     2.605500   14.745600    0.614400
H     1.486100   14.225000   -0.352400
C    -3.347400   11.549600    4.529100
C    -3.182800   10.126100    4.529100
C     7.389700   15.684000    2.672400
C     7.189500   17.127000    2.833800
H    -3.876600   11.822300    3.775500
H    -3.785600   11.817000    5.340400
H    -4.041000    9.702900    4.606100
H    -2.628800    9.860500    5.267900
H    -2.768000    9.858700    3.705900
H     7.942600   15.329900    3.372800
H     7.808800   15.526400    1.822600
H     8.034600   17.580300    2.819000
H     6.763200   17.272200    3.680700
H     6.630200   17.468700    2.132000
Cl   -3.509900   10.189800   -0.105100
O    -2.421200    9.366500   -0.180600
O    -4.651000    9.462100    0.075500
O    -3.580900   10.988300   -1.211100
O    -3.366700   10.912200    1.045300
C     3.353800    0.834000   -0.530000
C     3.841200    0.559500    0.692900
C     4.095300    1.717500    1.434700
C     3.908400    3.006500    0.989000
C     3.431100    3.192400   -0.257600
C     3.139300    2.062700   -1.077900
Cl    3.011800   -0.566600   -1.553100
H     4.007800   -0.325800    1.027500
H     4.432900    1.609500    2.326000
H     4.097500    3.766100    1.545700
H     3.290100    4.075900   -0.605600
H     2.805500    2.165400   -1.972100

QM/MM links (counting starts at zero)
  2   61
  4   63
