97
QM: 55 at, MM: 42 at, Links: 6
C     9.366300   11.240600    6.227300
H     9.677100   10.383900    6.040200
C     9.999700   11.977700    7.214600
H    10.717000   11.613300    7.680900
C     9.560300   13.270800    7.509300
C     8.492100   13.770100    6.768100
H     8.180800   14.633100    6.922900
C     7.891300   12.973700    5.792600
C     6.747800   13.396600    4.966500
C     6.182100   14.659300    4.997600
H     6.530000   15.306800    5.567800
C     5.096400   14.968700    4.181500
C     4.594000   13.944200    3.377400
H     3.847300   14.094300    2.841400
C     5.207000   12.704500    3.378700
H     4.861800   12.038100    2.829200
C     9.400400   12.508000    2.789300
H     9.649100   12.771300    3.645500
C    10.045000   13.088300    1.711100
H    10.713900   13.719000    1.853200
C     9.693600   12.729100    0.415600
C     8.686900   11.767700    0.271100
H     8.417500   11.497200   -0.576700
C     8.089200   11.218600    1.398100
C     7.022200   10.213900    1.348300
C     6.633000    9.566900    0.177300
H     7.048200    9.769700   -0.629500
C     5.616800    8.614700    0.223400
C     5.024300    8.359500    1.456600
H     4.335300    7.739500    1.522900
C     5.462700    9.030700    2.589600
H     5.053900    8.847500    3.404600
C     9.520800    8.828300    3.521500
H     9.886900    9.475800    2.963300
C    10.128100    7.584900    3.587300
H    10.894200    7.415500    3.089200
C     9.591100    6.590700    4.399500
C     8.482000    6.927500    5.177900
H     8.115200    6.302000    5.760000
C     7.930400    8.193900    5.083700
C     6.762500    8.642800    5.858300
C     6.216100    7.936100    6.921500
H     6.589300    7.124400    7.181400
C     5.110700    8.444600    7.601100
C     4.567700    9.640300    7.138100
H     3.806500    9.993600    7.538800
C     5.166900   10.303700    6.080400
H     4.793500   11.103600    5.788500
N     6.281100   12.416500    4.138600
N     8.314200   11.717000    5.524700
N     8.434500   11.586000    2.662100
N     6.460100    9.938200    2.551100
N     8.425600    9.135300    4.232200
N     6.271100    9.841200    5.453700
Fe    7.351700   10.776300    4.099800
C     5.689500    9.128700   13.059200
H     5.623900    8.462800   13.748200
H     4.906000    9.095900   12.506900
H     5.763000    9.998100   13.461300
O     6.801800    8.884300   12.293000
H     7.466800    9.167600   12.677500
C    10.207400   14.080100    8.592000
H     9.822100   13.847000    9.439400
H    10.065500   15.014100    8.421400
H    11.149600   13.896100    8.606900
C     4.512200   16.349500    4.158600
H     5.018100   16.900600    3.557500
H     4.543100   16.725000    5.041200
H     3.600100   16.305700    3.862100
C    10.383300   13.309700   -0.782400
H    11.173700   12.799700   -0.974700
H    10.628800   14.221200   -0.599700
H     9.792200   13.283000   -1.537800
C     5.184500    7.898800   -1.030200
H     5.438400    6.974600   -0.973300
H     5.609500    8.301700   -1.791000
H     4.232100    7.964700   -1.123600
C    10.159500    5.200200    4.419900
H    11.001600    5.190800    3.959600
H     9.549700    4.599600    3.984000
H    10.288300    4.920400    5.328200
C     4.553900    7.731500    8.800500
H     4.733700    6.791800    8.726000
H     3.605400    7.872800    8.843800
H     4.964900    8.075300    9.596400
C     7.471700    2.586600    2.864400
N     8.522000    2.467100    2.417700
Se    5.822100    2.726500    3.550400
C    12.359800    9.794600    5.118400
N    11.970500    9.369800    6.158000
Se   12.845300   10.372400    3.514600
C    10.547200    2.136500   -0.287000
H     9.900300    2.760400   -0.622700
H    10.179300    1.250500   -0.307300
H    11.336500    2.168000   -0.833900
O    10.872400    2.466400    1.001700
H    10.235800    2.308800    1.493100

QM/MM links (counting starts at zero)
  4   61
 11   65
 20   69
 27   73
 36   77
 43   81
