128
QM: 49 at, MM: 79 at, Links: 6
Fe    0.000000    4.687200    0.000000
N    -1.300900    4.727500    1.507200
N     1.388700    3.926000    1.229400
C    -2.625300    5.123100    1.457900
C    -1.107900    4.281300    2.798000
C     1.266000    3.662600    2.575700
C     2.684900    3.582900    0.907500
C    -3.275100    4.855000    2.709300
H    -4.188400    5.012500    2.914100
C    -2.347900    4.339400    3.537600
H    -2.482200    4.065700    4.436600
C     2.511600    3.165700    3.099300
H     2.690100    2.934200    4.002600
C     3.371500    3.089800    2.075400
H     4.265800    2.772000    2.111500
C     0.097400    3.823800    3.331400
C     3.274400    3.706600   -0.350500
N     0.632300    6.543300    0.485000
N     1.413400    8.586000    0.404700
C     1.097100    7.466700   -0.334100
H     1.196700    7.374800   -1.274500
C     1.170800    8.348800    1.684400
H     1.317300    8.945100    2.409500
C     0.679600    7.100200    1.756700
H     0.405200    6.665200    2.555900
N     1.300900    4.646900   -1.507200
N    -1.388700    5.448400   -1.229400
C     2.625300    4.251300   -1.457900
C     1.107900    5.093100   -2.798000
C    -1.266000    5.711800   -2.575700
C    -2.684900    5.791500   -0.907500
C     3.275100    4.519400   -2.709300
H     4.188400    4.361900   -2.914100
C     2.347900    5.035000   -3.537600
H     2.482200    5.308700   -4.436600
C    -2.511600    6.208700   -3.099300
H    -2.690100    6.440200   -4.002600
C    -3.371500    6.284600   -2.075400
H    -4.265800    6.602400   -2.111500
C    -0.097400    5.550600   -3.331400
C    -3.274400    5.667800    0.350500
N    -0.632300    2.831100   -0.485000
N    -1.413400    0.788400   -0.404700
C    -1.097100    1.907700    0.334100
H    -1.196700    1.999600    1.274500
C    -1.170800    1.025600   -1.684400
H    -1.317300    0.429300   -2.409500
C    -0.679600    2.274200   -1.756700
H    -0.405200    2.709200   -2.555900
C     0.133700    3.535100    4.801100
C    -0.213700    4.526900    5.713000
H    -0.422900    5.397800    5.397700
C    -0.260200    4.267200    7.078100
H    -0.530400    4.954400    7.676300
C     0.082300    3.017600    7.582200
C     0.479100    2.039900    6.675800
H     0.756900    1.189600    6.999400
C     0.480000    2.280800    5.305300
H     0.719100    1.584300    4.705300
C     0.015700    2.714800    9.057500
H    -0.011900    3.553800    9.562200
H     0.808100    2.201100    9.321000
H    -0.790200    2.191700    9.247000
C     4.676900    3.205100   -0.552300
C     5.761500    3.739400    0.152600
H     5.618300    4.436000    0.781900
C     7.050200    3.255700   -0.063700
H     7.775200    3.628800    0.423700
C     7.300500    2.240500   -0.977900
C     6.225400    1.715500   -1.665800
H     6.370400    1.017100   -2.292400
C     4.931400    2.186100   -1.460700
H     4.211800    1.805500   -1.949600
C     8.710200    1.731500   -1.207300
H     8.699600    1.042400   -1.903100
H     9.060100    1.349900   -0.375500
H     9.283700    2.473900   -1.491500
C     1.984700    9.781200   -0.184300
H     1.423800   10.553700    0.036200
H     2.029300    9.677200   -1.157400
H     2.886900    9.920900    0.172200
C    -0.133700    5.839300   -4.801100
C     0.213700    4.847500   -5.713000
H     0.422900    3.976600   -5.397700
C     0.260200    5.107200   -7.078100
H     0.530400    4.420000   -7.676300
C    -0.082300    6.356800   -7.582200
C    -0.479100    7.334500   -6.675800
H    -0.756900    8.184800   -6.999400
C    -0.480000    7.093600   -5.305300
H    -0.719100    7.790100   -4.705300
C    -0.015700    6.659600   -9.057500
H     0.011900    5.820600   -9.562200
H    -0.808100    7.173300   -9.321000
H     0.790200    7.182700   -9.247000
C    -4.676900    6.169300    0.552300
C    -5.761500    5.635000   -0.152600
H    -5.618300    4.938400   -0.781900
C    -7.050200    6.118700    0.063700
H    -7.775200    5.745600   -0.423700
C    -7.300500    7.133900    0.977900
C    -6.225400    7.658900    1.665800
H    -6.370400    8.357300    2.292400
C    -4.931400    7.188300    1.460700
H    -4.211800    7.568900    1.949600
C    -8.710200    7.642900    1.207300
H    -8.699600    8.332000    1.903100
H    -9.060100    8.024500    0.375500
H    -9.283700    6.900500    1.491500
C    -1.984700   -0.406800    0.184300
H    -1.423800   -1.179300   -0.036200
H    -2.029300   -0.302800    1.157400
H    -2.886900   -0.546500   -0.172200
C    -3.945500   -1.452100    5.172000
C    -2.610300   -1.452100    4.788000
H    -2.073700   -2.223600    4.929200
C    -2.057600   -0.322500    4.195500
H    -1.143400   -0.321500    3.932000
C    -2.840300    0.807100    3.987100
H    -2.462500    1.579600    3.582400
C    -4.175500    0.806200    4.371200
H    -4.712000    1.578600    4.229900
C    -4.728100   -0.323400    4.963600
H    -5.642300   -0.323400    5.227200
C    -4.475000   -2.680100    5.754200
H    -5.049400   -3.131000    5.099700
H    -5.001200   -2.461700    6.553300
H    -3.735000   -3.270700    6.002200

QM/MM links (counting starts at zero)
 15   49
 16   63
 18   77
 39   81
 40   95
 42  109
