85
QM: 73 at, MM: 12 at, Links: 0
N     0.139300    1.553500   -3.349300
C     1.406400    1.957400   -3.620900
Fe   -0.000000   -0.000000   -2.057900
N     1.971100    0.038100   -2.280100
N    -0.036300   -1.229300   -0.629100
H    -0.062700   -2.097500   -0.770500
C     3.124000   -0.570000   -1.874000
N     3.741300    1.227300   -3.114800
C     4.198900    0.164100   -2.382900
C     5.607300   -0.165500   -2.148800
O     2.408200   -2.590400   -0.834000
O     6.542000    0.515700   -2.539600
C     5.829800   -1.410200   -1.340700
C     2.418600    1.093500   -3.020300
C     4.750100   -2.157600   -0.825100
C     3.309400   -1.825000   -1.143600
C     4.998300   -3.271300   -0.030800
H     4.272100   -3.756600    0.342800
C     7.132200   -1.817800   -1.068700
H     7.865900   -1.323300   -1.414600
C     6.303300   -3.678400    0.218900
H     6.469600   -4.456600    0.737200
C     7.359600   -2.942800   -0.295100
H     8.252500   -3.214000   -0.112600
C    -0.646800    3.451900   -4.581300
H    -1.381900    3.966800   -4.891600
C    -0.863500    2.318500   -3.824800
H    -1.758600    2.066400   -3.630800
C     1.691200    3.066500   -4.388300
H     2.592600    3.301200   -4.574800
C     0.653600    3.835000   -4.884600
H     0.825200    4.602700   -5.416800
C    -0.020800   -0.732400    0.587200
C    -0.019600   -1.428900    1.829300
H    -0.030900   -2.378700    1.850100
C    -0.002400   -0.712700    2.988800
H     0.006800   -1.175500    3.818400
N     0.036300    1.229300   -0.629100
H     0.062700    2.097500   -0.770500
C     0.020800    0.732400    0.587200
C     0.019600    1.428900    1.829300
H     0.030900    2.378700    1.850100
C     0.002400    0.712700    2.988800
H    -0.006800    1.175500    3.818400
N    -0.139300   -1.553500   -3.349300
C    -1.406400   -1.957400   -3.620900
N    -1.971100   -0.038100   -2.280100
C    -3.124000    0.570000   -1.874000
N    -3.741300   -1.227300   -3.114800
C    -4.198900   -0.164100   -2.382900
C    -5.607300    0.165500   -2.148800
O    -2.408200    2.590400   -0.834000
O    -6.542000   -0.515700   -2.539600
C    -5.829800    1.410200   -1.340700
C    -2.418600   -1.093500   -3.020300
C    -4.750100    2.157600   -0.825100
C    -3.309400    1.825000   -1.143600
C    -4.998300    3.271300   -0.030800
H    -4.272100    3.756600    0.342800
C    -7.132200    1.817800   -1.068700
H    -7.865900    1.323300   -1.414600
C    -6.303300    3.678400    0.218900
H    -6.469600    4.456600    0.737200
C    -7.359600    2.942800   -0.295100
H    -8.252500    3.214000   -0.112600
C     0.646800   -3.451900   -4.581300
H     1.381900   -3.966800   -4.891600
C     0.863500   -2.318500   -3.824800
H     1.758600   -2.066400   -3.630800
C    -1.691200   -3.066500   -4.388300
H    -2.592600   -3.301200   -4.574800
C    -0.653600   -3.835000   -4.884600
H    -0.825200   -4.602700   -5.416800
N     4.262200   -1.035500   -5.819500
C     2.932700   -0.808400   -6.361900
H     2.490600   -0.094700   -5.856300
H     2.406100   -1.632300   -6.292100
H     3.004100   -0.545600   -7.303400
C     5.233000    0.034100   -6.001900
H     5.439400    0.128800   -6.954300
H     6.051800   -0.181100   -5.508700
H     4.859100    0.874600   -5.662800
O     3.798100   -3.095700   -4.964200
C     4.569500   -2.168800   -5.181300
H     5.461800   -2.263700   -4.869100

QM/MM links (counting starts at zero)
