88
QM: 31 at, MM: 57 at, Links: 8
Fe   10.866000    5.552500    4.801100
N     8.940200    5.602100    5.183100
C     7.988200    4.831300    4.654800
H     8.213800    4.251600    3.936900
C     6.687400    4.844300    5.112000
H     6.040400    4.268400    4.722400
C     6.327700    5.692300    6.134100
H     5.437000    5.711500    6.462300
C     7.310400    6.521500    6.672600
H     7.093100    7.132600    7.366800
C     8.600900    6.446000    6.188600
C     9.729900    7.174100    6.778900
N    10.885100    6.880400    6.257400
N    12.002600    7.349200    7.003600
N    11.010200    4.165600    6.172300
C    11.029300    3.401300    7.011900
N    12.791700    5.602100    4.419100
C    13.743800    4.831300    4.947400
H    13.518200    4.251600    5.665300
C    15.044600    4.844300    4.490200
H    15.691600    4.268400    4.879800
C    15.404300    5.692300    3.468100
H    16.295000    5.711500    3.139900
C    14.421600    6.521500    2.929600
H    14.638900    7.132600    2.235400
C    13.131000    6.446000    3.413600
C    12.002000    7.174100    2.823200
N    10.846800    6.880400    3.344800
N     9.729400    7.349200    2.598500
N    10.721800    4.165600    3.429900
C    10.702700    3.401300    2.590300
C     9.521600    8.111200    7.914700
H    10.316200    8.675100    8.023600
H     9.370200    7.599600    8.736100
H     8.741500    8.676800    7.733600
C    12.361000    6.466600    8.108500
H    12.957400    6.940400    8.724500
H    12.816700    5.672700    7.758600
H    11.549100    6.193600    8.584400
C    13.027800    8.001600    6.288900
C    14.371500    7.755400    6.542000
H    14.623400    7.092200    7.174800
C    15.347400    8.481400    5.868900
H    16.264500    8.312700    6.047500
C    14.997100    9.447900    4.940100
H    15.671400    9.931000    4.478500
C    13.670600    9.703500    4.690300
H    13.425900   10.360900    4.048300
C    12.685700    9.002500    5.375300
H    11.770800    9.206200    5.221700
C    11.095400    2.422000    8.092700
H    12.025200    2.142700    8.225200
H    10.550100    1.642000    7.860300
H    10.753400    2.823700    8.918500
C    12.210400    8.111200    1.687500
H    11.415800    8.675100    1.578600
H    12.361700    7.599600    0.866100
H    12.990500    8.676800    1.868600
C     9.371000    6.466600    1.493700
H     8.774600    6.940400    0.877600
H     8.915300    5.672700    1.843600
H    10.182900    6.193600    1.017800
C     8.704200    8.001600    3.313300
C     7.360400    7.755400    3.060200
H     7.108600    7.092200    2.427400
C     6.384500    8.481400    3.733300
H     5.467400    8.312700    3.554700
C     6.734900    9.447900    4.662100
H     6.060500    9.931000    5.123700
C     8.061400    9.703500    4.911900
H     8.306100   10.360900    5.553900
C     9.046300    9.002500    4.226900
H     9.961200    9.206200    4.380500
C    10.636600    2.422000    1.509500
H     9.706800    2.142700    1.377000
H    11.181800    1.642000    1.741800
H    10.978500    2.823700    0.683700
N     5.540400    7.709500    9.244800
C     5.648200    6.839300    9.970900
C     5.792400    5.731600   10.898700
H     5.320000    4.947800   10.549000
H     5.412200    5.981200   11.766500
H     6.742600    5.517600   11.007900
Cl    3.503800    3.541700    8.134000
O     3.596900    4.977300    8.119800
O     2.131500    3.149600    7.959600
O     3.993200    3.042900    9.388600
O     4.290700    2.996000    7.061400

QM/MM links (counting starts at zero)
 11   31
 13   35
 13   39
 15   50
 26   54
 28   58
 28   62
 30   73
