101
QM: 49 at, MM: 52 at, Links: 0
Fe    1.712400    4.615700    8.189900
N     0.911300    3.380600    6.843100
H     1.380300    2.572900    6.859400
N     1.187900    6.048700    6.897600
H     1.932600    6.576600    6.716300
N    -0.153800    4.805500    8.860600
H    -0.130700    4.944000    9.776600
N     2.305600    3.126800    9.392200
H     1.735100    2.402800    9.270900
N     3.593300    4.586300    7.538300
H     3.600200    4.825700    6.633200
N     2.421100    5.780500    9.651200
H     1.757400    6.392000    9.885700
C     1.098000    4.006500    5.507200
H     0.537200    3.542100    4.837900
H     2.043300    3.934400    5.229100
C     0.691700    5.460300    5.602600
H     1.074300    5.962200    4.840600
H    -0.293500    5.535300    5.559000
C    -0.527100    3.109400    7.156600
H    -0.725600    2.148900    7.029800
H    -1.107500    3.625800    6.540500
C    -0.830100    3.507500    8.587900
H    -1.803500    3.596900    8.716100
H    -0.489900    2.812300    9.205400
C     0.165700    6.882300    7.565600
H    -0.277800    7.476500    6.914000
H     0.590000    7.447700    8.264900
C    -0.854400    5.967900    8.206200
H    -1.378300    6.467000    8.886500
H    -1.486200    5.636200    7.517800
C     3.709800    2.697000    9.051400
H     4.345600    3.071900    9.712500
H     3.777900    1.707600    9.084100
C     4.072000    3.184400    7.674600
H     5.048700    3.146900    7.538300
H     3.638600    2.613300    6.986200
C     2.187000    3.605600   10.782600
H     2.661500    2.991200   11.397400
H     1.233300    3.640200   11.052500
C     3.571800    6.530400    9.078700
H     4.091200    6.954400    9.801100
H     3.241800    7.240000    8.469300
C     4.447400    5.561200    8.315300
H     5.028200    6.060300    7.684100
H     5.023600    5.065100    8.939600
C     2.796800    4.984300   10.864400
H     2.466100    5.445900   11.680900
H     3.778600    4.912200   10.929800
S     7.083800    5.347800   12.077600
F     6.477300    2.870000   11.655000
F     5.166800    3.853600   12.990900
F     7.097800    3.288300   13.672500
O     6.240900    5.685300   10.973500
O     6.950900    6.178500   13.236300
O     8.446400    5.053600   11.736800
C     6.398500    3.721000   12.541100
S     5.447400    5.414100    4.510700
O     4.050000    5.451600    4.730200
O     6.171200    4.932400    5.643500
O     5.976400    6.533300    3.857800
C     5.667000    4.153600    3.298900
F     4.838400    3.002700    3.694200
F     6.810500    3.721000    3.162500
F     5.126000    4.439200    2.112900
F     1.025000    0.031700    2.290100
F     1.761400    1.958500    2.835400
F     3.095700    0.276900    2.808100
S     1.468900    0.317300    4.824200
O     1.651600   -1.093200    4.921000
O     2.420000    1.133600    5.520800
O     0.114700    0.764400    4.989200
C     1.841800    0.663400    3.080700
O     2.231800    6.094900    0.313500
H     1.757600    5.936200   -0.362600
C     2.000500    5.105500    1.295000
H     2.387400    5.393900    2.147000
H     2.410300    4.260300    1.015600
H     1.032200    4.978600    1.404100
O     6.849500   -0.686500    5.084600
H     7.638000   -0.409600    5.036900
C     5.959300    0.426900    5.111900
H     6.429300    1.214400    5.460800
H     5.196800    0.222100    5.703500
H     5.630400    0.608600    4.212200
C     1.804900   -0.461500   12.759200
H     2.158700   -1.104700   12.074900
H     1.411400   -0.951900   13.498000
C     0.948000    0.519200   12.132200
H     0.175300    0.063500   11.829500
H     1.428500    0.992300   11.473700
H     0.692000    1.148000   12.886000
O     2.970500    0.375000   13.263600
C     5.111200    0.461500   14.504100
H     4.757300    1.104700   15.188400
H     5.504600    0.951900   13.765200
C     5.968000   -0.519200   15.131100
H     6.740800   -0.063500   15.433700
H     5.487600   -0.992300   15.789500
H     6.224000   -1.148000   14.377300
O     3.945600   -0.375000   13.999700

QM/MM links (counting starts at zero)
