74
QM: 61 at, MM: 13 at, Links: 0
Fe    2.701800    0.838500    3.499400
O     3.331800    1.846300    1.996800
O     4.396400    0.115000    3.996800
N     2.643300    2.667900    4.579000
N     1.781100    0.305200    5.393300
N     2.226700   -1.054900    2.649500
N     0.690600    1.099900    2.758000
C     3.825000    3.054200    1.869100
C     4.317900    3.469100    0.620200
H     4.243500    2.899500   -0.111400
C     4.909800    4.701400    0.458800
H     5.238300    4.947700   -0.375700
C     5.023300    5.583200    1.529200
H     5.444200    6.404700    1.419300
C     4.507300    5.227000    2.743100
H     4.565100    5.825600    3.452500
C     3.890400    3.974200    2.948200
C     3.276800    3.748300    4.216800
H     3.333400    4.434300    4.842100
C     1.928000    2.647000    5.807300
C     1.602300    3.732100    6.586700
H     1.874500    4.583000    6.329200
C     0.862000    3.563400    7.771100
H     0.673900    4.306200    8.299100
C     0.413400    2.339000    8.160700
H    -0.087700    2.253400    8.939200
C     0.709700    1.204700    7.384600
C     1.471900    1.362700    6.200600
C     0.286700   -0.101200    7.714800
H    -0.227500   -0.248900    8.475700
C     0.634900   -1.139200    6.914500
H     0.379100   -2.005800    7.135400
C     1.381600   -0.899400    5.757200
H     1.608000   -1.623200    5.218200
C     4.962500   -1.064300    3.878500
C     6.266400   -1.262300    4.365400
H     6.711500   -0.560500    4.783200
C     6.892400   -2.480200    4.231700
H     7.758300   -2.583400    4.553800
C     6.259400   -3.559600    3.626400
H     6.697200   -4.375100    3.541100
C     4.991400   -3.407300    3.160800
H     4.560100   -4.131200    2.768100
C     4.310600   -2.160200    3.262100
C     3.002300   -2.105500    2.705100
H     2.666200   -2.894400    2.345200
C     0.943000   -1.168700    2.047200
C     0.406600   -2.274600    1.442200
H     0.889300   -3.069100    1.428800
C    -0.859400   -2.226400    0.843700
H    -1.196400   -2.988200    0.429600
C    -1.608100   -1.083900    0.856100
H    -2.437500   -1.064100    0.435600
C    -1.117600    0.061400    1.508500
C     0.162600    0.022400    2.107400
C    -1.843100    1.269600    1.615800
H    -2.694600    1.335400    1.247700
C    -1.297300    2.334100    2.255900
H    -1.767800    3.132900    2.322300
C    -0.016300    2.218900    2.817400
H     0.351100    2.957100    3.247800
S     0.577600    6.333300    2.646400
O     1.555300    7.396900    2.696100
O     0.735300    5.401300    3.733300
O    -0.747000    6.847900    2.502000
C     0.936000    5.444900    1.175000
H     0.316000    4.717600    1.081500
H     1.830300    5.098600    1.220200
H     0.857400    6.031500    0.419700
C     2.670600   -4.682900    5.991500
H     2.872500   -5.541400    5.612900
H     2.341700   -4.797200    6.886500
H     3.465300   -4.145200    6.009000
O     1.622700   -4.000700    5.156100

QM/MM links (counting starts at zero)
