107
QM: 20 at, MM: 87 at, Links: 7
Fe   10.872000    9.089100   10.291400
P    11.528400   11.201700    9.940600
P     9.342800    7.491200   10.705900
P    12.228900    8.061000    8.786500
N    11.961000    8.749800   11.673000
N     9.566100    9.563500    8.896900
N    12.637600    8.548800   12.546000
C     8.244500    7.515400    9.213800
H     8.477000    6.770500    8.604300
H     7.297600    7.417700    9.483700
C     8.457100    8.829900    8.530700
C     9.541200   10.733300    8.178700
C    10.696800   11.670700    8.356700
H    10.377400   12.607200    8.399000
H    11.328100   11.587200    7.598600
C     8.437100   10.747800    7.356100
H     8.187500   11.442000    6.756600
C     7.745800    9.534200    7.572800
H     6.945600    9.255500    7.143600
H    10.043100    9.805800   11.235600
C    13.289300   11.714900    9.601700
H    13.592100   11.133500    8.847000
C     8.155100    7.785000   12.107100
H     7.516600    7.014800   12.120600
C     6.340100    9.252900   13.090000
H     5.851200   10.105500   12.972300
H     5.677400    8.516400   13.084600
C     7.066100    9.268100   14.423600
H     6.405200    9.345600   15.157000
H     7.663500   10.055900   14.464800
C     9.742300    5.671500   10.841000
H     9.928900    5.375400    9.904000
C    12.598000    8.942500    7.218000
C    11.024500    5.350400   11.626400
H    10.888700    5.563800   12.583900
H    11.767500    5.910800   11.289700
C    11.327000   12.121100   12.586700
H    10.872800   11.282100   12.853000
H    12.303900   11.971500   12.638000
C     7.320900    9.063500   11.926700
H     7.924900    9.845900   11.875100
H     6.816800    9.010300   11.076100
C     8.877500    7.798900   13.454900
H     9.543200    8.531700   13.463300
H     9.361700    6.943900   13.575700
C    11.391800    3.862500   11.477100
H    11.622200    3.673100   10.532300
H    12.187000    3.663500   12.031800
C    13.866200    9.433500    6.905700
H    14.580300    9.302800    7.518200
C    10.938300   12.479500   11.145600
H    11.396200   13.339400   10.918000
C     7.889900    7.993900   14.615000
H     7.283000    7.212900   14.665900
H     8.390400    8.049800   15.467700
C    15.731000   11.756700   10.260500
H    16.349600   11.643400   11.026200
H    15.987100   11.104100    9.561400
C    14.293000   11.470400   10.721000
H    14.226100   10.529900   11.020600
H    14.072800   12.052500   11.490800
C     8.959400    3.298800   11.143900
H     8.219600    2.731300   11.474200
H     9.089000    3.103600   10.181400
C     9.009200   13.836900   12.028900
H     8.026300   13.950200   11.993000
H     9.426100   14.690400   11.751600
C     8.586300    4.780200   11.320400
H     7.770000    4.982400   10.797300
H     8.396100    4.964900   12.274600
C    13.901600    7.609800    9.402700
H    14.378700    8.420100    9.677900
H    14.403300    7.161500    8.688900
H    13.815900    7.006500   10.170300
C    15.869000   13.161000    9.709700
H    15.721200   13.818300   10.435300
H    16.785500   13.291600    9.358900
C    10.929600   13.245600   13.545400
H    11.171200   12.993400   14.471700
H    11.424300   14.070500   13.312100
C    10.235900    2.964100   11.906600
H    10.478200    2.017700   11.743300
H    10.077600    3.075700   12.878000
C     9.426900   12.728800   11.061400
H     9.185700   12.988400   10.137000
H     8.941300   11.895300   11.282800
C     9.430800   13.508400   13.462300
H     9.195000   14.265400   14.055600
H     8.938300   12.709000   13.775400
C    11.558600    9.153100    6.301100
H    10.685500    8.825500    6.483400
C    11.723100    6.459500    8.052100
H    11.732200    5.764800    8.744400
H    12.347000    6.216100    7.336400
H    10.818900    6.541300    7.683200
C    14.103200   10.110300    5.714800
H    14.974400   10.430900    5.516500
C    13.430200   13.140900    9.089800
H    13.206700   13.778100    9.813800
H    12.797000   13.289600    8.342100
C    11.818100    9.847200    5.119700
H    11.110700   10.001600    4.504000
C    13.082000   10.314700    4.827600
H    13.243000   10.775600    4.012900
C    14.866600   13.394500    8.605600
H    15.068100   12.791100    7.846900
H    14.944400   14.327100    8.283800

QM/MM links (counting starts at zero)
  1   20
  1   50
  2   22
  2   30
  3   32
  3   70
  3   91
