81
QM: 15 at, MM: 66 at, Links: 6
Fe    2.108700    7.109700    4.805300
P     0.839000    6.394200    3.291700
P     3.372600    8.544300    5.719000
O     0.286400    7.393100    2.166600
O     1.530900    5.310600    2.315200
O    -0.600200    5.720800    3.634600
O     2.840700    9.420100    6.956600
O     4.631700    7.853600    6.422900
O     4.049300    9.756700    4.911000
O     0.766500    6.307500    7.282700
O     4.207000    5.092200    4.537700
C     1.294600    6.591400    6.313700
C     3.369400    5.860100    4.661600
H     1.140500    8.266300    4.772000
H     2.615900    7.797900    3.571900
C     0.039300    8.746600    2.310700
C    -1.174300    9.169200    2.828400
C    -1.471000   10.527200    2.839400
C    -0.555000   11.447900    2.344700
C     0.665200   11.004600    1.842800
C     0.972100    9.647900    1.824000
C     1.082800    5.038700    1.023800
C     1.729600    5.665700   -0.034800
C     1.323200    5.375300   -1.332500
C     0.280900    4.481100   -1.563900
C    -0.344200    3.866300   -0.488900
C     0.060900    4.134600    0.814900
C    -0.789500    4.706900    4.562700
C    -1.995800    4.712900    5.250100
C    -2.273500    3.696300    6.155700
C    -1.352400    2.680100    6.385800
C    -0.152800    2.686300    5.690900
C     0.137300    3.693600    4.771700
C     2.032900   10.539400    6.920900
C     1.901900   11.209100    8.129900
C     1.087500   12.333500    8.201900
C     0.414100   12.788300    7.073200
C     0.567700   12.115800    5.869200
C     1.379500   10.987500    5.778100
C     5.719500    8.540000    6.963700
C     6.907200    8.514700    6.257400
C     8.040700    9.085300    6.822300
C     7.981500    9.662400    8.080900
C     6.776000    9.682200    8.772900
C     5.630400    9.120600    8.217000
C     4.292400    9.905700    3.564300
C     4.816500    8.880500    2.781400
C     5.056500    9.125700    1.435500
C     4.797900   10.371700    0.880700
C     4.289600   11.389000    1.683000
C     4.037000   11.161300    3.032400
H    -1.881200    8.440900    3.202700
H    -2.456600   10.870500    3.208000
H    -0.794700   12.504100    2.325700
H     1.380700   11.731400    1.436200
H     1.920100    9.310500    1.404300
H     2.549000    6.367900    0.190000
H     1.841200    5.815400   -2.178300
H    -0.028600    4.276000   -2.588400
H    -1.172900    3.163000   -0.667500
H    -0.390800    3.644000    1.636800
H    -2.671800    5.523600    5.068500
H    -3.219300    3.668800    6.678700
H    -1.612200    1.857900    7.099500
H     0.553700    1.878800    5.844300
H     1.043300    3.691700    4.191500
H     2.456500   10.828000    8.995500
H     1.002900   12.834000    9.146400
H    -0.204500   13.671100    7.151000
H     0.045800   12.469100    4.978000
H     1.459000   10.489600    4.793300
H     6.911500    8.035500    5.267300
H     8.964300    9.067300    6.254400
H     8.896300   10.088500    8.542800
H     6.729800   10.125100    9.767800
H     4.698700    9.147000    8.757600
H     5.022500    7.886000    3.206200
H     5.454700    8.319900    0.818400
H     4.958700   10.535000   -0.172200
H     4.077000   12.349200    1.248000
H     3.637200   11.971600    3.657100

QM/MM links (counting starts at zero)
  3   15
  4   21
  5   27
  6   33
  7   39
  8   45
