81
QM: 15 at, MM: 66 at, Links: 6
Fe    2.108700    7.109700    4.805600
P     0.838200    6.394100    3.291600
P     3.373000    8.544800    5.719300
O     0.285700    7.393300    2.167300
O     1.532500    5.310800    2.314100
O    -0.599100    5.720400    3.635500
O     2.840800    9.420400    6.956000
O     4.631100    7.854900    6.422500
O     4.048400    9.756800    4.911000
O     0.766600    6.308900    7.282900
O     4.205900    5.092300    4.537000
C     1.294300    6.590600    6.313000
C     3.367700    5.859000    4.662100
H     1.122200    8.262700    4.766700
H     2.619100    7.771800    3.584400
C     0.039900    8.747000    2.311800
C    -1.173200    9.171100    2.826800
C    -1.470300   10.527400    2.839600
C    -0.554300   11.447600    2.345200
C     0.665700   11.004500    1.843300
C     0.971100    9.649700    1.822400
C     1.082500    5.038900    1.025800
C     1.730100    5.665300   -0.036400
C     1.325300    5.373100   -1.333300
C     0.281700    4.481500   -1.564200
C    -0.345100    3.865500   -0.488600
C     0.060000    4.134300    0.814300
C    -0.789700    4.706400    4.563600
C    -1.995200    4.714600    5.251000
C    -2.272300    3.697300    6.156200
C    -1.353000    2.679500    6.386000
C    -0.153400    2.685100    5.690600
C     0.138200    3.692900    4.771500
C     2.034700   10.540700    6.918600
C     1.902400   11.210200    8.129300
C     1.087900   12.333100    8.201600
C     0.415200   12.788200    7.073700
C     0.567300   12.117400    5.870400
C     1.380100   10.988800    5.779200
C     5.720800    8.540100    6.962800
C     6.908100    8.518700    6.260300
C     8.038800    9.082100    6.825200
C     7.982500    9.660100    8.079400
C     6.776400    9.681900    8.773100
C     5.630800    9.121800    8.215800
C     4.291700    9.904100    3.563800
C     4.817000    8.881700    2.781400
C     5.058900    9.127000    1.436800
C     4.799000   10.372900    0.880600
C     4.289400   11.388300    1.683900
C     4.039200   11.160600    3.030800
H    -1.867200    8.461000    3.190200
H    -2.410000   10.863800    3.254100
H    -0.784400   12.501300    2.274200
H     1.384300   11.733400    1.439800
H     1.909200    9.301900    1.398900
H     2.553200    6.379600    0.182900
H     1.815800    5.858200   -2.181900
H    -0.048900    4.290300   -2.574200
H    -1.160300    3.141900   -0.674600
H    -0.362700    3.676300    1.651000
H    -2.671200    5.524400    5.057900
H    -3.227500    3.701400    6.707100
H    -1.586800    1.882400    7.120800
H     0.567700    1.898000    5.815900
H     1.049000    3.669100    4.205700
H     2.446100   10.817100    8.979500
H     1.000600   12.857100    9.134000
H    -0.208200   13.664600    7.133200
H     0.061100   12.461800    4.986800
H     1.460600   10.484700    4.816400
H     6.938100    8.012200    5.308200
H     8.950500    9.052000    6.279300
H     8.919800   10.057700    8.546300
H     6.713700   10.135600    9.769500
H     4.679400    9.175900    8.738100
H     5.027100    7.912400    3.204400
H     5.466300    8.317000    0.818400
H     4.962800   10.559100   -0.184600
H     4.069900   12.328600    1.242700
H     3.633800   11.946100    3.632300

QM/MM links (counting starts at zero)
  3   15
  4   21
  5   27
  6   33
  7   39
  8   45
