81
QM: 15 at, MM: 66 at, Links: 6
Fe    2.108700    7.109700    4.805400
P     0.839000    6.394200    3.291700
P     3.372600    8.544400    5.719000
O     0.286400    7.393100    2.166600
O     1.531000    5.310600    2.315200
O    -0.600100    5.720800    3.634600
O     2.840700    9.420100    6.956600
O     4.631700    7.853600    6.422900
O     4.049300    9.756700    4.911000
O     0.766500    6.307500    7.282700
O     4.207000    5.092200    4.537700
C     1.294600    6.591400    6.313700
C     3.369200    5.860100    4.661600
H     1.140800    8.265300    4.772000
H     2.615900    7.797900    3.571900
C     0.039400    8.746600    2.310700
C    -1.174200    9.169300    2.828200
C    -1.471100   10.527300    2.839600
C    -0.554900   11.448000    2.344700
C     0.665300   11.004500    1.842800
C     0.972000    9.648000    1.824000
C     1.082800    5.038700    1.023800
C     1.729600    5.665800   -0.034800
C     1.323300    5.375200   -1.332500
C     0.280900    4.481100   -1.564000
C    -0.344300    3.866200   -0.488900
C     0.060900    4.134600    0.815000
C    -0.789400    4.706900    4.562700
C    -1.995800    4.713000    5.250100
C    -2.273800    3.696400    6.155900
C    -1.352400    2.679900    6.386000
C    -0.152700    2.686300    5.690900
C     0.137600    3.693600    4.771500
C     2.033000   10.539400    6.920700
C     1.901800   11.209200    8.129900
C     1.087700   12.333600    8.202100
C     0.413900   12.788600    7.073400
C     0.567600   12.115800    5.869400
C     1.379500   10.987500    5.777900
C     5.719500    8.540000    6.963700
C     6.907200    8.514900    6.257400
C     8.040700    9.085200    6.822200
C     7.981700    9.662300    8.080900
C     6.776100    9.682400    8.773100
C     5.630200    9.120500    8.217000
C     4.292300    9.905600    3.564300
C     4.816500    8.880500    2.781400
C     5.056600    9.125700    1.435500
C     4.797900   10.371800    0.880700
C     4.289600   11.389200    1.683000
C     4.037000   11.161400    3.032400
H    -1.880300    8.440900    3.202700
H    -2.456400   10.869100    3.209800
H    -0.794000   12.505100    2.325700
H     1.380500   11.730900    1.438000
H     1.919400    9.309500    1.404300
H     2.550000    6.367900    0.190000
H     1.841300    5.815900   -2.180100
H    -0.028600    4.276000   -2.588400
H    -1.175000    3.164400   -0.669300
H    -0.390600    3.642600    1.638600
H    -2.671900    5.523200    5.070300
H    -3.219500    3.668400    6.680500
H    -1.602800    1.857500    7.101200
H     0.553400    1.879800    5.844300
H     1.044200    3.691700    4.191500
H     2.456200   10.829000    8.995500
H     1.002800   12.833500    9.148200
H    -0.204500   13.671100    7.151000
H     0.046200   12.468100    4.978000
H     1.458900   10.489200    4.795100
H     6.912600    8.034100    5.269100
H     8.964300    9.067300    6.254400
H     8.898200   10.088500    8.542800
H     6.729700   10.124700    9.769500
H     4.697600    9.146600    8.759400
H     5.023000    7.885500    3.204400
H     5.455200    8.316400    0.816600
H     4.958800   10.535500   -0.174000
H     4.076600   12.349700    1.249800
H     3.636500   11.970600    3.657100

QM/MM links (counting starts at zero)
  3   15
  4   21
  5   27
  6   33
  7   39
  8   45
