81
QM: 15 at, MM: 66 at, Links: 6
Fe    2.108700    7.109800    4.805600
P     0.838300    6.394000    3.291600
P     3.372900    8.544600    5.719300
O     0.285300    7.393200    2.167300
O     1.532400    5.310700    2.314500
O    -0.598800    5.720300    3.635300
O     2.840700    9.420500    6.956200
O     4.631000    7.854800    6.422700
O     4.048100    9.756600    4.911200
O     0.766500    6.309400    7.282900
O     4.206000    5.092700    4.537300
C     1.294200    6.590700    6.313400
C     3.368000    5.859300    4.662300
H     1.118400    8.252000    4.757800
H     2.618700    7.765500    3.593200
C     0.039900    8.747300    2.310900
C    -1.173700    9.170400    2.827900
C    -1.472900   10.528400    2.840000
C    -0.554900   11.448700    2.344300
C     0.667400   11.005400    1.841500
C     0.971400    9.649300    1.822900
C     1.082100    5.039100    1.025200
C     1.730600    5.666000   -0.035500
C     1.326000    5.373900   -1.333800
C     0.280600    4.481700   -1.565600
C    -0.345800    3.864900   -0.489300
C     0.060000    4.132900    0.815800
C    -0.789500    4.707600    4.563600
C    -1.996900    4.714400    5.249600
C    -2.272400    3.697000    6.156800
C    -1.353100    2.680300    6.385600
C    -0.151400    2.683700    5.690900
C     0.139200    3.693500    4.771100
C     2.034800   10.540300    6.918700
C     1.901700   11.210500    8.129700
C     1.087800   12.333700    8.202600
C     0.414900   12.789400    7.074400
C     0.566600   12.117200    5.868800
C     1.380200   10.988800    5.778500
C     5.720400    8.540600    6.962400
C     6.907800    8.518300    6.259400
C     8.040700    9.082300    6.824300
C     7.982000    9.660100    8.080300
C     6.776400    9.681900    8.773100
C     5.630600    9.121300    8.215800
C     4.291700    9.904700    3.563600
C     4.816600    8.881100    2.781900
C     5.059300    9.125400    1.435500
C     4.798300   10.373500    0.881300
C     4.290100   11.389200    1.682800
C     4.037400   11.161900    3.032600
H    -1.877200    8.453000    3.190200
H    -2.414400   10.885400    3.263000
H    -0.789600   12.506800    2.295500
H     1.406600   11.740700    1.430900
H     1.910600    9.298400    1.397200
H     2.562000    6.380100    0.181100
H     1.810600    5.858900   -2.192500
H    -0.047900    4.305000   -2.584900
H    -1.152800    3.142200   -0.679900
H    -0.379800    3.673400    1.654600
H    -2.676500    5.534500    5.065000
H    -3.223900    3.700500    6.710700
H    -1.579500    1.873400    7.117200
H     0.589500    1.885100    5.819500
H     1.054000    3.662900    4.198600
H     2.458400   10.826000    8.976000
H     0.996800   12.854300    9.144600
H    -0.212900   13.674700    7.136800
H     0.041300   12.461300    4.985100
H     1.465100   10.471900    4.820000
H     6.953300    8.005500    5.299300
H     8.960800    9.051900    6.275700
H     8.914000   10.068100    8.544600
H     6.710100   10.126800    9.773100
H     4.681300    9.168000    8.741600
H     5.032300    7.902900    3.202700
H     5.458500    8.301400    0.813100
H     4.966700   10.568100   -0.184600
H     4.061200   12.342900    1.256900
H     3.626800   11.955900    3.644700

QM/MM links (counting starts at zero)
  3   15
  4   21
  5   27
  6   33
  7   39
  8   45
