125
QM: 25 at, MM: 100 at, Links: 12
Fe    5.873100   10.918500    3.298700
N     6.532200   12.838600    3.305300
N     5.865900   15.068000    3.059300
H     5.262700   15.606100    2.764200
N     3.454100   14.031200    2.009100
H     3.644500   14.859200    1.880300
N     4.230700   11.929300    2.668100
N     5.216500   10.969700    5.251900
N     3.739700    9.918600    6.715600
H     3.311800    9.188800    6.878600
N     3.955500    7.654600    5.042400
H     3.615300    7.577400    5.828400
N     5.005400    9.083300    3.493800
N     7.677300   10.099800    3.683100
N     9.580100    9.104000    2.716900
H     9.983500    8.899600    1.986300
N     8.442600    9.771100    0.218500
H     9.223900    9.414500    0.254400
N     6.592500   10.558700    1.428200
C     5.680200   13.728000    2.997400
C     4.371100   13.204500    2.535900
C     4.488000    9.976100    5.632700
C     4.467300    8.832500    4.654200
C     8.386000    9.740900    2.669600
C     7.777200   10.051500    1.365000
C     7.853500   13.278500    3.750800
H     8.515100   12.662900    3.396900
H     7.885600   13.215900    4.717800
C     8.233300   14.642100    3.361000
H     8.444400   14.662100    2.413600
H     9.026900   14.910000    3.850300
C     7.129700   15.600100    3.643200
H     7.335200   16.464300    3.253400
H     7.028900   15.714200    4.600400
C     2.143200   13.526400    1.656900
H     1.496600   13.848400    2.304300
H     1.893400   13.877000    0.787700
C     2.092300   12.131400    1.619400
H     1.198800   11.887300    1.909600
H     2.151600   11.884100    0.683300
C     2.954600   11.297400    2.289600
H     3.142200   10.527000    1.730300
H     2.515400   10.975100    3.093600
C     5.317400   12.103500    6.200200
H     6.241000   12.395900    6.239400
H     4.789600   12.844000    5.859400
C     4.868700   11.793200    7.547200
H     4.766000   12.627900    8.033200
H     5.566200   11.283400    7.989200
C     3.598300   11.032300    7.656500
H     3.472000   10.705000    8.561600
H     2.842500   11.591700    7.418400
C     3.969600    6.491900    4.137300
H     4.120400    5.683000    4.652600
H     3.108200    6.414100    3.698600
C     5.022400    6.630800    3.127800
H     5.875300    6.417300    3.537200
H     4.863100    5.981800    2.423300
C     5.111900    7.962300    2.527700
H     4.406000    8.054100    1.868900
H     5.959200    8.035100    2.061300
C     8.191900    9.828700    5.022800
H     7.792300    9.007700    5.350600
H     7.917600   10.546000    5.614800
C     9.694100    9.697400    5.078200
H     9.957100    9.354100    5.947500
H    10.101300   10.568300    4.964100
C    10.183300    8.763900    3.995400
H    11.148400    8.826500    3.925300
H     9.956100    7.850700    4.227000
C     7.841300   10.072400   -1.084500
H     8.400100   10.724000   -1.534600
H     7.852600    9.261900   -1.619400
C     6.622700   10.527000   -1.060000
H     6.077000    9.878600   -1.534600
H     6.619800   11.334300   -1.596500
C     5.904500   10.848600    0.181000
H     5.689600   11.795200    0.169600
H     5.065700   10.361700    0.179400
B     6.732000    1.700100    3.189800
C     7.560400    3.023600    2.708700
C     8.157900    3.919300    3.532300
H     8.121200    3.807800    4.453700
C     8.860100    5.058500    2.958200
H     9.272900    5.664000    3.529000
C     8.930800    5.261900    1.660100
H     9.386900    5.997700    1.317700
C     8.343600    4.405300    0.861100
H     8.369000    4.551500   -0.057100
C     7.702700    3.314800    1.338900
H     7.334200    2.720700    0.725700
C     5.208000    1.835500    2.615800
C     4.592600    0.982800    1.717200
H     5.059100    0.241600    1.407400
C     3.314600    1.201100    1.268700
H     2.940500    0.594400    0.671900
C     2.581400    2.258900    1.661800
H     1.718100    2.383800    1.338900
C     3.112900    3.119000    2.514700
H     2.620000    3.852300    2.804900
C     4.406000    2.924800    2.977800
H     4.761300    3.556700    3.563300
C     6.742400    1.585700    4.827100
C     7.947800    1.331100    5.482700
H     8.730000    1.274600    4.983700
C     8.013700    1.159200    6.885200
H     8.829900    0.982100    7.294500
C     6.850700    1.254500    7.651600
H     6.889400    1.134700    8.573000
C     5.681100    1.518000    7.058000
H     4.905500    1.592400    7.566800
C     5.629300    1.679200    5.663700
H     4.803700    1.859400    5.275600
C     7.475600    0.305400    2.643500
C     6.912000   -0.923700    2.935400
H     6.110900   -0.947200    3.405100
C     7.495400   -2.116200    2.555400
H     7.099600   -2.921000    2.796800
C     8.652700   -2.120300    1.824800
H     9.040100   -2.921000    1.552500
C     9.220100   -0.939500    1.508500
H    10.004200   -0.924900    1.009500
C     8.643300    0.260000    1.926000
H     9.067400    1.058400    1.709100
Br    7.343700   23.241400    0.160300

QM/MM links (counting starts at zero)
  1   25
  2   31
  4   34
  6   40
  7   43
  8   49
 10   52
 12   58
 13   61
 14   67
 16   70
 18   76
