100
QM: 40 at, MM: 60 at, Links: 6
Br   -5.629800    1.982700   -6.379100
Fe   -3.643100    1.512000   -4.970500
O    -4.613000    1.483000   -3.328400
C    -4.166900    1.749400   -2.114600
C    -4.996100    2.426600   -1.162900
C    -4.438400    2.729400    0.073800
H    -4.979300    3.202100    0.695900
C    -3.127800    2.387200    0.473800
C    -2.369200    1.677600   -0.427000
H    -1.497800    1.390700   -0.178300
C    -2.860400    1.365600   -1.715100
C    -1.954900    0.667800   -2.586400
H    -1.165500    0.318400   -2.189100
N    -2.104700    0.466300   -3.859800
C    -1.059200   -0.234900   -4.530200
C    -1.329700   -1.487100   -5.108000
S    -2.876200   -2.306200   -4.865300
O    -2.755900    3.170600   -4.721400
C    -1.670300    3.731100   -5.222400
C    -1.158000    4.946600   -4.667600
C    -0.034900    5.505300   -5.273100
H     0.310100    6.308700   -4.902800
C     0.629700    4.964600   -6.397900
C     0.129700    3.786100   -6.908100
H     0.557300    3.384800   -7.654900
C    -1.008500    3.160600   -6.342600
C    -1.480200    2.007100   -7.055200
H    -0.973200    1.753300   -7.817500
N    -2.516300    1.265600   -6.786800
C    -2.877100    0.273200   -7.748400
C    -2.532700    0.382800   -9.103700
H    -2.070800    1.154200   -9.413900
C    -2.862300   -0.629700   -9.996500
H    -2.604900   -0.552400  -10.907100
C    -3.563100   -1.752700   -9.575600
H    -3.759300   -2.451300  -10.188500
C    -3.973800   -1.845200   -8.252700
H    -4.476800   -2.596800   -7.962600
C    -3.647100   -0.831900   -7.349300
S    -4.224000   -0.943400   -5.680000
C     0.202100    0.335200   -4.678300
H     0.383400    1.188400   -4.303000
C     1.198500   -0.343400   -5.375000
H     2.064500    0.038700   -5.451800
C     0.931800   -1.578500   -5.958900
H     1.612100   -2.034800   -6.439700
C    -0.336100   -2.142800   -5.835100
H    -0.524900   -2.977100   -6.247400
C    -6.444000    2.816500   -1.505300
C    -7.142600    3.514000   -0.325900
H    -7.152700    2.914000    0.449400
H    -8.063100    3.737700   -0.577000
H    -6.657300    4.334800   -0.097900
C    -7.248900    1.548500   -1.837800
H    -6.878000    1.126900   -2.640200
H    -8.184900    1.788700   -1.998500
H    -7.197300    0.921400   -1.085800
C    -6.481300    3.785400   -2.703200
H    -5.962300    4.589100   -2.489900
H    -7.409400    4.036400   -2.892000
H    -6.095800    3.346500   -3.490000
C    -2.614400    2.831500    1.847300
C    -1.184300    2.345400    2.111300
H    -1.160100    1.366700    2.073700
H    -0.895600    2.646400    2.998700
H    -0.583300    2.712300    1.430300
C    -3.530200    2.264200    2.948100
H    -3.523500    1.285700    2.906000
H    -4.444200    2.590500    2.813300
H    -3.205600    2.556000    3.825700
C    -2.639100    4.368900    1.918600
H    -2.327000    4.660000    2.801100
H    -3.554200    4.687700    1.774700
H    -2.052400    4.737600    1.225700
C    -1.817100    5.613400   -3.447500
C    -1.110800    6.917000   -3.049900
H    -1.572000    7.317700   -2.283500
H    -1.129000    7.541500   -3.804700
H    -0.181300    6.723900   -2.808100
C    -3.288500    5.964200   -3.740000
H    -3.771400    5.153400   -4.004000
H    -3.329200    6.620300   -4.467400
H    -3.700700    6.342800   -2.935700
C    -1.744000    4.662400   -2.239500
H    -2.231700    3.836300   -2.442600
H    -2.146500    5.095400   -1.458200
H    -0.807300    4.448800   -2.047500
C     1.834600    5.692400   -7.004600
C     2.373400    4.969200   -8.242900
H     1.665300    4.903900   -8.917300
H     2.669400    4.069300   -7.992300
H     3.129700    5.471800   -8.611300
C     2.957100    5.800700   -5.957600
H     3.261500    4.902900   -5.710600
H     2.617600    6.260400   -5.161500
H     3.706200    6.307600   -6.333000
C     1.411600    7.108700   -7.426400
H     2.175800    7.571400   -7.829700
H     1.106700    7.606700   -6.639000
H     0.682900    7.051500   -8.079800

QM/MM links (counting starts at zero)
  4   48
  7   61
 14   40
 15   46
 19   74
 22   87
