118
QM: 43 at, MM: 75 at, Links: 6
Fe    5.054900    5.465800    4.971800
O     2.464100    6.209400    5.123400
N     4.625200    6.201000    3.161200
N     5.215200    3.627100    4.190200
N     5.517300    4.732200    6.777800
N     5.007400    7.324700    5.717600
N     3.297200    5.281200    5.284100
N     7.063300    5.681000    4.658100
N     9.060300    5.745400    3.729000
C     4.253200    7.496400    2.857300
C     3.775800    7.572100    1.504600
H     3.453700    8.348400    1.061300
C     3.871700    6.333600    0.982800
H     3.635200    6.072700    0.099600
C     4.399300    5.477800    2.013500
C     4.605500    4.109500    1.847200
C     4.985800    3.257300    2.884900
C     5.170700    1.839100    2.730400
H     5.063600    1.338600    1.930200
C     5.524400    1.357100    3.934900
H     5.719700    0.450500    4.143300
C     5.552800    2.468000    4.851200
C     5.828300    2.353000    6.212500
C     5.768100    3.419000    7.106100
C     5.986400    3.304300    8.526100
H     6.169800    2.505100    9.006300
C     5.881900    4.541500    9.045600
H     5.972600    4.777800    9.961200
C     5.609300    5.442200    7.954900
C     5.547200    6.835000    8.078900
C     5.272600    7.697500    7.014700
C     5.197000    9.135400    7.137800
H     5.361000    9.645200    7.922300
C     4.850500    9.615100    5.933000
H     4.718000   10.528300    5.707000
C     4.717200    8.491400    5.051700
C     4.327200    8.589600    3.715000
C     7.730400    5.619800    3.521300
H     7.328800    5.502000    2.667900
C     9.247700    5.878200    5.077400
H    10.077900    5.974800    5.528200
C     8.025000    5.842600    5.641100
H     7.849700    5.918400    6.571400
O     3.760100    2.043200   -3.367800
O     7.047700   -2.821700    8.202000
O     6.642700    9.109100   13.139600
O     2.883400   13.576900    1.434000
C     4.401400    3.541300    0.473400
C     5.398500    3.654500   -0.487000
H     6.216100    4.081300   -0.255700
C     5.233000    3.162000   -1.773400
H     5.931600    3.247900   -2.412200
C     4.042100    2.542200   -2.122600
C     3.029000    2.422200   -1.170800
H     2.213100    1.992400   -1.398500
C     3.208700    2.927700    0.103400
H     2.505100    2.855100    0.737700
C     4.776800    2.189100   -4.367400
H     5.003100    3.137100   -4.466900
H     4.447200    1.840900   -5.220500
H     5.575300    1.689400   -4.098100
C     6.178900    0.990600    6.744700
C     7.422900    0.426800    6.498100
H     8.061700    0.922200    5.998900
C     7.763400   -0.842700    6.960800
H     8.619900   -1.209300    6.775100
C     6.832500   -1.563600    7.695600
C     5.593000   -1.008700    7.960400
H     4.959000   -1.495700    8.474500
C     5.267900    0.250100    7.483100
H     4.408300    0.611600    7.664400
C     8.269800   -3.471900    7.851100
H     9.025500   -2.955200    8.198400
H     8.337900   -3.533900    6.874600
H     8.283700   -4.371900    8.236900
C     5.844200    7.444500    9.411500
C     7.153000    7.693000    9.785800
H     7.854500    7.478300    9.182800
C     7.468000    8.250200   11.021100
H     8.374600    8.407800   11.257800
C     6.467500    8.566200   11.888300
C     5.146300    8.352200   11.525800
H     4.446800    8.589300   12.122200
C     4.844100    7.795500   10.296100
H     3.936000    7.652600   10.056200
C     7.979100    9.384100   13.549000
H     8.362300   10.075400   12.970800
H     8.516400    8.566400   13.480000
H     7.978400    9.697000   14.477900
C     3.936100    9.930500    3.157600
C     4.733600   10.568000    2.215100
H     5.555200   10.169500    1.952900
C     4.354700   11.773300    1.653700
H     4.915600   12.193500    1.013800
C     3.156800   12.370800    2.023200
C     2.335600   11.733500    2.935600
H     1.503200   12.121000    3.179300
C     2.734900   10.519100    3.497700
H     2.167800   10.089800    4.127500
C     1.604800   14.130400    1.695100
H     1.498400   14.266200    2.658900
H     0.911900   13.516700    1.373600
H     1.519700   14.989100    1.231000
C    10.107600    5.731500    2.707300
H     9.855000    6.329800    1.973200
H    10.216400    4.820500    2.362400
H    10.951400    6.035300    3.100100
C     2.691700    4.040200    5.733700
C     2.217800    3.128000    4.804500
H     2.305300    3.300900    3.874100
C     1.613500    1.957600    5.251700
H     1.285000    1.324200    4.625300
C     1.489300    1.716500    6.613900
H     1.074100    0.917100    6.917600
C     1.966000    2.629000    7.523600
H     1.881700    2.457400    8.454100
C     2.569900    3.802700    7.086400
H     2.895700    4.436300    7.714200

QM/MM links (counting starts at zero)
  6  107
  8  103
 15   47
 22   61
 29   75
 36   89
