84
QM: 37 at, MM: 47 at, Links: 6
Fe   -0.051200    8.983900    5.283100
N     2.262800   11.892800    3.113900
N     2.096300    9.535500    8.970700
N     2.327800    5.647200    3.962300
N     2.707100   10.807600    2.575000
N     2.505300   10.552400    8.297600
N     2.766800    5.746100    5.228200
N     2.104100    9.822900    3.130800
N     1.967600   10.523700    7.143800
N     2.102900    6.705500    5.775500
N     1.226700   10.286500    4.053200
N     1.176800    9.476200    7.065600
N     1.251800    7.255400    4.864700
C     1.317500   11.571200    4.000400
C     1.231600    8.861700    8.213100
C     1.395500    6.560000    3.754200
H     0.697200   12.259400    4.579400
H     0.679900    7.975900    8.501600
H     0.870200    6.730700    2.839100
N    -1.329100    7.681200    6.513000
N    -2.206400    8.144800    7.435400
N    -2.809400    7.160100    7.991200
N    -2.365200    6.074900    7.452300
C    -1.419900    6.396500    6.565800
H    -0.799500    5.708300    5.986800
N    -1.279200    8.491500    3.500600
N    -2.070000    7.444000    3.422400
N    -2.607700    7.415300    2.268600
N    -2.198600    8.432200    1.595500
C    -1.333900    9.106000    2.353100
H    -0.782300    9.991800    2.064600
N    -1.354200   10.712300    5.701500
N    -2.205200   11.262200    4.790700
N    -2.869100   12.221600    5.338000
N    -2.430100   12.320500    6.603900
C    -1.497900   11.407700    6.812000
H    -0.972500   11.237000    7.727100
Cl    4.519800   13.224200    4.562500
Cl    4.568300    7.947100    9.374300
Cl    4.787400    6.353400    2.366800
C     2.670000   13.247600    2.631000
C     2.436100    9.294700   10.406700
C     2.812100    4.576400    3.064200
C     4.131400   13.468600    2.852900
C     3.984100    9.115000   10.502800
C     4.338000    4.669800    2.926800
H     2.066900   14.013000    3.191000
H     1.969300    8.372900   10.745800
H     2.345800    4.687800    2.102700
H     2.399600   13.359000    1.584900
H     2.113100   10.115800   11.010000
H     2.576300    3.613300    3.486800
H     4.674500   12.839700    2.187200
H     4.412200   10.115800   10.376000
H     4.805100    4.402100    3.814400
H     4.328900   14.526900    2.609900
H     4.169000    8.822100   11.559400
H     4.614300    3.970900    2.102700
C    -2.772300    4.720100    7.935200
C    -4.233800    4.499100    7.713300
Cl   -4.622100    4.743500    6.003700
H    -4.776900    5.128000    8.379000
H    -4.431300    3.440800    7.956400
H    -2.169300    3.954700    7.375200
H    -2.501900    4.608700    8.981300
C    -2.538400    8.673000    0.159500
C    -4.086500    8.852700    0.063400
Cl   -4.670600   10.020600    1.191900
H    -4.514600    7.851900    0.190200
H    -4.271400    9.145600   -0.993200
H    -2.071700    9.594800   -0.179600
H    -2.215500    7.851900   -0.443800
C    -2.914500   13.391300    7.502000
C    -4.440400   13.297900    7.639400
Cl   -4.889800   11.614300    8.199400
H    -4.907500   13.565600    6.751800
H    -4.716700   13.996800    8.463500
H    -2.448100   13.279900    8.463500
H    -2.678600   14.354400    7.079400
F     1.234800    2.862800    5.900600
F     0.494800    3.063100    3.950800
F    -0.401600    1.644400    5.396800
F    -0.625200    3.825000    5.693700
B     0.061300    2.846300    5.167000

QM/MM links (counting starts at zero)
  1   40
  2   41
  3   42
 22   58
 28   65
 34   72
