79
QM: 41 at, MM: 38 at, Links: 3
Fe    6.509500   -3.555100   -1.861700
S     7.887100   -2.025400   -0.853200
S     6.207000   -4.546600    0.083000
S     6.525400   -2.341900   -3.698300
S     5.074800   -5.057400   -2.861700
P     8.197400   -4.852200   -2.508600
N     4.915600   -2.447200   -1.338900
C     7.728300   -2.411400    0.839000
C     8.361900   -1.625000    1.813500
C     8.240200   -1.923100    3.136000
C     7.495900   -2.995700    3.586700
C     6.869300   -3.796100    2.639100
C     6.969800   -3.490300    1.295700
C     4.459300   -4.111200    0.339200
C     4.711700   -4.282700   -4.384100
C     3.816800   -4.858200   -5.288600
C     3.565000   -4.299200   -6.517400
C     4.186200   -3.152600   -6.899700
C     5.080100   -2.544800   -6.036900
C     5.341500   -3.109400   -4.785800
C     5.578300   -0.906000   -3.094300
C     4.133400   -2.815600   -0.303500
C     3.047400   -2.042100    0.081800
C     2.734700   -0.887300   -0.605500
C     3.528300   -0.521600   -1.673600
C     4.623100   -1.314000   -1.997900
H     8.886700   -0.925400    1.562000
H     8.516500   -1.383900    3.734000
H     7.439300   -3.145700    4.463000
H     6.491700   -4.631500    2.826500
H     4.296700   -4.159300    1.279400
H     4.012100   -4.783300   -0.208300
H     3.350100   -5.645300   -4.968800
H     3.114600   -4.714000   -7.185400
H     4.098400   -2.765100   -7.691200
H     5.644600   -1.779600   -6.337400
H     5.159200   -0.539400   -3.719100
H     6.252900   -0.244100   -2.811700
H     2.518000   -2.363600    0.803300
H     1.851200   -0.300400   -0.401700
H     3.364700    0.207000   -2.186900
C     8.346100   -5.108100   -4.314200
C     8.117000   -6.570100   -1.904200
C     9.894900   -4.376000   -2.088700
H     8.958000   -5.675700   -4.507600
H     7.633400   -5.447800   -4.641500
H     8.641600   -4.238700   -4.909300
H     7.279600   -6.897600   -2.246400
H     8.821100   -7.106800   -2.186900
H     8.231800   -6.618700   -0.981900
H    10.084200   -3.647400   -2.514100
H    10.003200   -4.238600   -1.219900
H    10.878400   -4.916500   -2.395100
O     2.331400   -0.114800   -5.459700
C     1.477200   -1.351000   -5.083300
H     2.029800   -2.132700   -4.940500
H     0.948200   -1.183700   -4.285900
C     0.654000   -1.510400   -6.199100
H    -0.257900   -1.662600   -5.916400
H     0.949600   -2.282600   -6.710800
C     0.721900   -0.319400   -7.026200
H     1.131300   -0.530200   -7.883100
H    -0.165500    0.028700   -7.183900
C     1.494000    0.602100   -6.338900
H     0.923600    1.207600   -5.840500
H     2.027100    1.122200   -6.960700
O     2.918200   -1.691300    5.093700
C     3.638300   -2.616700    4.339500
H     3.133800   -2.872600    3.551000
H     4.483500   -2.236100    4.056800
C     3.852700   -3.712900    5.151700
H     3.804800   -4.526300    4.625100
H     4.730700   -3.659500    5.554900
C     2.922400   -3.735500    6.096400
H     3.324200   -3.777600    6.978600
H     2.323400   -4.488000    5.981900
C     2.235800   -2.469300    5.886700
H     1.363300   -2.642200    5.499900
H     2.106500   -2.031700    6.740600

QM/MM links (counting starts at zero)
  5   41
  5   42
  5   43
