120
QM: 30 at, MM: 90 at, Links: 15
Fe    5.789400    6.166200    3.708900
N     5.911000    5.450300    5.628900
N     3.758500    5.939000    3.720900
N     5.695300    6.809500    1.764600
N     7.833000    6.498500    3.714800
N     6.998000    2.226000    2.880000
O     5.518300    8.176800    4.289700
O     6.048400    4.279700    2.951500
C     7.064000    5.168300    6.311800
C     6.795300    4.216200    7.378000
C     5.454200    3.959600    7.340900
C     4.897200    4.756700    6.274300
C     3.561700    4.927100    5.903400
C     3.000600    5.604400    4.813600
C     1.618900    5.983400    4.609200
C     1.529700    6.471300    3.335400
C     2.875600    6.408700    2.778300
C     3.301800    6.667100    1.481600
C     4.595400    6.691600    0.950300
C     5.003000    6.633600   -0.449800
C     6.364000    6.766900   -0.459000
C     6.779400    6.916500    0.924200
C     8.053500    7.191200    1.416400
C     8.565900    7.106000    2.707000
C     9.840300    7.566600    3.232300
C     9.879800    7.191200    4.552800
C     8.640200    6.488500    4.818800
C     8.280500    5.763100    5.964500
C     6.769000    3.375700    3.435800
H     7.180800    3.546200    4.275100
N     2.558000    4.261600    6.768500
N     2.240500    6.905600    0.485200
N     9.005000    7.696200    0.411800
N     9.389100    5.556400    6.906000
O     2.344100    4.737600    7.867700
O     2.002900    3.277800    6.297200
O     1.560300    5.959900    0.134600
O     2.133300    8.058900    0.061300
O     8.815400    8.820600   -0.030800
O     9.938600    6.969000    0.083800
O     9.416100    6.231900    7.929300
O    10.246300    4.730400    6.596000
O     6.520500    8.429800    6.411500
O     5.277000   10.187000    5.467600
O     4.184200    8.245700    6.231400
C     7.776600    3.480000    8.253500
H     7.312700    3.161700    9.069200
H     8.494600    4.101100    8.534500
C     8.396900    2.284000    7.522900
H     9.003100    1.809800    8.130100
H     8.898400    2.601400    6.744000
H     7.686700    1.676500    7.229300
C     4.778400    2.944100    8.236800
H     5.354900    2.139900    8.298600
H     3.922100    2.669400    7.820100
C     4.495400    3.462800    9.656800
H     4.126300    2.736500   10.201400
H     3.849700    4.198100    9.612800
H     5.330500    3.783700   10.059900
C     0.517700    6.088600    5.627700
H     0.489800    5.262600    6.173400
H    -0.353000    6.180200    5.164700
C     0.741800    7.295500    6.540000
H    -0.023500    7.395200    7.143900
H     0.833900    8.105200    5.993700
H     1.558500    7.161300    7.065300
C     0.280900    7.045200    2.724300
H     0.532700    7.590200    1.936500
H    -0.150800    7.646400    3.381000
C    -0.733900    5.980700    2.287800
H    -1.534300    6.418700    1.932000
H    -0.979000    5.428500    3.059700
H    -0.336400    5.414000    1.595000
C     4.156100    6.291700   -1.651200
H     4.604400    6.617200   -2.471200
H     3.281800    6.750500   -1.577000
C     3.928200    4.790200   -1.764900
H     3.375400    4.602500   -2.552000
H     3.471200    4.467400   -0.959300
H     4.791400    4.335000   -1.855600
C     7.245200    6.557400   -1.655000
H     7.945500    7.256500   -1.669200
H     6.703800    6.653500   -2.477900
C     7.911000    5.176500   -1.647600
H     8.510700    5.099400   -2.419500
H     7.222500    4.481900   -1.698400
H     8.424500    5.066800   -0.820000
C    10.928100    8.386300    2.572000
H    11.212000    9.099800    3.196800
H    10.554300    8.824200    1.768000
C    12.163100    7.567500    2.160200
H    12.866200    8.172300    1.842100
H    11.918600    6.945500    1.444500
H    12.492700    7.062400    2.931700
C    10.942900    7.644600    5.511800
H    11.793600    7.786000    5.023200
H    11.092400    6.944600    6.195900
C    10.518100    8.951100    6.196100
H    11.188800    9.203200    6.863100
H     9.651900    8.822400    6.636200
H    10.441200    9.661100    5.526400
C     6.384900    1.844300    1.630100
H     5.952200    2.625900    1.226600
H     5.716700    1.147900    1.792700
H     7.070900    1.501500    1.019900
C     7.888700    1.257600    3.500300
H     8.145500    1.573200    4.391900
H     8.691500    1.150600    2.947400
H     7.429400    0.395300    3.578700
Cl    5.362200    8.776800    5.647900
C     2.281600    1.541400    2.074900
H     2.809800    0.964800    1.451200
Cl    3.046400    3.117000    2.152600
Cl    2.298300    0.795600    3.674200
Cl    0.661800    1.661100    1.471000
C    13.757600    5.180100   -1.568500
H    13.875300    4.268800   -1.172700
Cl   14.334700    5.145400   -3.223500
Cl   12.055700    5.579700   -1.535500
Cl   14.665500    6.333600   -0.596000

QM/MM links (counting starts at zero)
  5  101
  5  105
  6  109
  9   45
 10   52
 12   30
 14   59
 15   66
 17   31
 19   73
 20   80
 22   32
 24   87
 25   94
 27   33
