161
QM: 100 at, MM: 61 at, Links: 4
Fe    4.266700    4.115100   13.249700
N     3.544400    5.801700   12.454800
N     3.846000    3.142100   11.537300
N     1.293300    3.491100   13.977700
C     3.534300    7.040600   13.040800
C     2.876100    5.944200   11.253000
C     3.196200    3.655200   10.437000
C     3.965200    1.794900   11.309300
C     2.833500    7.973600   12.192400
H     2.686100    8.895300   12.370000
C     2.427000    7.292500   11.102100
H     1.935000    7.644300   10.369200
C     2.972900    2.617700    9.480700
H     2.572000    2.720900    8.625600
C     3.432400    1.469600   10.009400
H     3.410900    0.610700    9.604700
C     2.715900    4.951600   10.287400
C     4.465500    0.848200   12.219000
C     2.397700    3.694400   13.768100
N     4.989100    2.428600   14.044700
N     4.687500    5.088100   14.962100
C     4.999200    1.189600   13.458700
C     5.657400    2.286000   15.246500
C     5.337200    4.575000   16.062500
C     4.568300    6.435400   15.190200
C     5.700000    0.256600   14.307100
H     5.847400   -0.665000   14.129500
C     6.106400    0.937800   15.397400
H     6.598500    0.586000   16.130200
C     5.560600    5.612500   17.018800
H     5.961400    5.509300   17.873900
C     5.101100    6.760700   16.490100
H     5.122600    7.619600   16.894700
C     5.817600    3.278600   16.212100
C     4.068000    7.382000   14.280400
N     7.240200    4.739100   12.521800
C     6.135800    4.535900   12.731400
K    -0.925600    0.614500    3.312400
N     1.600700    0.594100    4.858000
O    -0.690200    2.217600    5.650400
O     1.356100    1.770200    2.139700
O     0.127800   -1.872400    4.249600
C     1.610800    1.664200    5.872300
H     1.841400    2.520100    5.433700
H     2.316800    1.466600    6.538700
C     0.295000    1.822200    6.586400
H     0.034100    0.964600    7.007800
H     0.377000    2.505300    7.298000
C    -1.908600    2.571100    6.288300
H    -1.758400    3.346400    6.885900
H    -2.224300    1.813900    6.842200
C     2.671900    0.816400    3.872900
H     2.753300    0.004900    3.311100
H     3.525100    0.930000    4.359200
C     2.479800    1.993400    2.975900
H     2.338500    2.809800    3.517800
H     3.289000    2.128300    2.420700
C     1.087600    2.913500    1.346200
H     1.918100    3.211400    0.893000
H     0.764500    3.652600    1.918600
C     1.494100   -1.897900    4.652000
H     2.078700   -1.884700    3.854300
H     1.679400   -2.729200    5.158100
C    -0.203300   -3.020500    3.484700
H     0.013500   -3.835300    4.001400
H     0.335800   -3.030400    2.653900
C     1.782200   -0.704500    5.514500
H     1.192200   -0.740700    6.308200
H     2.717400   -0.767100    5.835200
N    -3.451900    0.594100    1.766900
O    -1.161000    2.217600    0.974500
O    -3.207300    1.770200    4.485200
C    -3.462000    1.664200    0.752600
H    -3.692600    2.520100    1.191200
H    -4.168000    1.466600    0.086100
C    -2.146100    1.822200    0.038400
H    -1.885300    0.964600   -0.382900
H    -2.228200    2.505300   -0.673100
C     0.057400    2.571100    0.336500
H    -0.092800    3.346400   -0.261000
H     0.373100    1.813900   -0.217300
C    -4.523100    0.816400    2.752000
H    -4.604500    0.004900    3.313800
H    -5.376300    0.930000    2.265700
C    -4.331000    1.993400    3.649000
H    -4.189700    2.809800    3.107100
H    -5.140200    2.128300    4.204100
C    -2.938800    2.913500    5.278700
H    -3.769300    3.211400    5.731800
H    -2.615600    3.652600    4.706300
C    -3.633400   -0.704500    1.110300
H    -3.043400   -0.740700    0.316700
H    -4.568600   -0.767100    0.789700
O    -1.979000   -1.872400    2.375300
C    -3.345300   -1.897900    1.972900
H    -3.929900   -1.884700    2.770500
H    -3.530600   -2.729200    1.466700
C    -1.647900   -3.020500    3.140200
H    -1.864700   -3.835300    2.623400
H    -2.187000   -3.030400    3.970900
C     1.984500    5.298000    9.022900
C     0.621100    5.550500    9.039000
H     0.145400    5.522500    9.860500
C    -0.055500    5.845100    7.861100
H    -0.988900    6.022900    7.896800
C     0.586800    5.883000    6.638100
C    -0.171300    6.190800    5.354200
H     0.452300    6.529900    4.678500
H    -0.858000    6.867300    5.534400
H    -0.597100    5.372700    5.023000
C     1.945700    5.650900    6.630200
H     2.416400    5.685500    5.806000
C     2.647300    5.368300    7.796100
H     3.586000    5.221300    7.757700
C     4.327800   -0.598800   11.892600
C     4.802800   -1.160100   10.709800
H     5.323700   -0.630400   10.117500
C     4.527600   -2.478600   10.382500
H     4.843100   -2.827900    9.555700
C     3.802800   -3.298400   11.235800
C     3.490900   -4.721900   10.844900
H     2.699500   -4.735700   10.268500
H     3.317400   -5.252500   11.650500
H     4.255000   -5.101100   10.360000
C     3.381900   -2.758000   12.444200
H     2.919600   -3.310200   13.062900
C     3.621100   -1.434900   12.764100
H     3.301700   -1.088000   13.588900
C     6.549000    2.932300   17.476500
C     7.912400    2.679800   17.460500
H     8.388000    2.707800   16.639000
C     8.589000    2.385100   18.638400
H     9.522400    2.207400   18.602600
C     7.946600    2.347300   19.861400
C     8.704800    2.039500   21.145300
H     8.081200    1.700400   21.821000
H     9.391400    1.362900   20.965100
H     9.130600    2.857500   21.476500
C     6.587700    2.579400   19.869300
H     6.117100    2.544800   20.693400
C     5.886200    2.862000   18.703300
H     4.947500    3.009000   18.741800
C     4.205600    8.829100   14.606900
C     3.730700    9.390400   15.789700
H     3.209800    8.860700   16.382000
C     4.005800   10.708900   16.117000
H     3.690300   11.058200   16.943800
C     4.730700   11.528600   15.263700
C     5.042600   12.952100   15.654600
H     5.834000   12.965900   16.230900
H     5.216100   13.482800   14.849000
H     4.278500   13.331400   16.139500
C     5.151600   10.988200   14.055300
H     5.613900   11.540500   13.436600
C     4.912300    9.665100   13.735300
H     5.231700    9.318300   12.910500
C     1.586800    9.968500    7.246300
H     2.197700   10.745400    7.307200
H     2.133800    9.155300    7.113800
Cl    0.651600    9.825100    8.742800
Cl    0.495100   10.177500    5.896500

QM/MM links (counting starts at zero)
 16  100
 17  114
 33  128
 34  142
