99
QM: 79 at, MM: 20 at, Links: 0
C     3.906200    4.200000    4.043600
H     3.942200    4.438300    4.962500
C     4.345600    5.022000    2.994700
H     4.727800    5.889500    3.064100
C     4.108300    4.310200    1.849100
H     4.294100    4.589600    0.960200
C     3.022200    2.079700    1.446600
C     3.045400    2.058800    0.068400
H     3.459900    2.756100   -0.426200
C     2.438700    0.976100   -0.577300
C     1.828900   -0.030300    0.196200
H     1.371800   -0.756300   -0.210600
C     1.919900    0.077800    1.560900
C     1.052800   -2.179900    2.241400
H     0.991000   -2.613100    1.398100
C     0.773600   -2.731700    3.461100
H     0.478500   -3.617200    3.638500
C     1.013300   -1.718300    4.392800
H     0.899000   -1.816900    5.331400
C     2.463500    0.911400   -2.041400
H     2.589000    1.722100   -2.521700
C     2.321100   -0.221600   -2.746900
H     2.151000   -1.019000   -2.258900
C     2.406000   -0.336900   -4.215300
C     2.226800    0.754500   -5.067000
H     2.066400    1.617400   -4.703100
C     2.281100    0.584000   -6.445400
H     2.133900    1.324900   -7.021000
C     2.550500   -0.668700   -6.983100
H     2.599500   -0.779600   -7.925500
C     2.747400   -1.752900   -6.148100
H     2.940800   -2.608100   -6.515600
C     2.661100   -1.590000   -4.766600
H     2.777300   -2.340500   -4.196100
C     0.513600    3.325400    5.478600
H     0.290700    3.765100    4.666000
C    -0.001800    3.676300    6.739700
H    -0.616200    4.373500    6.938400
C     0.571400    2.798600    7.619000
H     0.432700    2.771100    8.558900
C     2.308800    1.015500    7.323800
C     2.495600    0.674100    8.645700
H     1.958800    1.053900    9.332100
C     3.506100   -0.255200    8.946000
C     4.267800   -0.787900    7.890200
H     4.970500   -1.404600    8.056900
C     3.963500   -0.388300    6.604700
C     5.505100   -1.897500    5.293700
H     5.831700   -2.470200    5.978300
C     5.812200   -1.968000    3.960100
H     6.390600   -2.588200    3.532400
C     5.087100   -0.927200    3.366300
H     5.103100   -0.733100    2.435800
C     3.811700   -0.662400   10.316300
H     4.610700   -1.158600   10.452300
C     3.065900   -0.397300   11.398800
H     2.256200    0.081500   11.264200
C     3.399600   -0.787900   12.776900
C     2.810600   -0.089600   13.834400
H     2.186400    0.603400   13.651100
C     3.128900   -0.399100   15.151700
H     2.741400    0.096400   15.864600
C     4.007500   -1.425400   15.423100
H     4.216100   -1.644000   16.322700
C     4.587200   -2.139200   14.385400
H     5.188500   -2.849200   14.577600
C     4.290700   -1.820600   13.061400
H     4.695700   -2.307300   12.354100
N     3.432400    3.043700    3.587300
N     3.556900    3.126300    2.226600
N     2.494400    1.107900    2.190900
N     1.435000   -0.895100    2.463400
N     1.420800   -0.597300    3.802600
N     1.351600    2.300800    5.569400
N     1.374300    1.976000    6.897200
N     3.006400    0.492700    6.311000
N     4.645400   -0.856900    5.455200
N     4.373200   -0.242900    4.255400
Fe    2.665300    1.138400    4.309200
C     4.162200   12.307800    1.179000
H     3.813500   12.688300    2.011300
H     5.081800   11.998500    1.320600
H     3.602200   11.551300    0.904600
C     4.147000   13.356200    0.105300
C     4.432900   12.900900   -1.295500
H     4.493600   13.680700   -1.886600
H     3.710100   12.314300   -1.602000
H     5.282200   12.412400   -1.313900
O     3.929200   14.521700    0.369100
B     4.968600    3.675700    7.411900
F     3.607600    3.974400    7.318500
F     5.701500    4.745500    6.957500
F     5.284700    3.395900    8.741500
F     5.225500    2.554100    6.631300
B    -0.431100    3.929300    1.535600
F    -0.987600    4.851600    0.672800
F    -1.248300    3.741800    2.623400
F     0.819700    4.383300    1.955000
F    -0.255300    2.726800    0.866800

QM/MM links (counting starts at zero)
