105
QM: 61 at, MM: 44 at, Links: 4
Fe    5.629000    0.000000    0.000000
N     6.466800    0.673500    1.688900
N     6.370500    1.553100   -1.010200
C     6.283900    0.188200    2.969000
C     7.147500    1.862900    1.848500
C     7.065400    2.627500   -0.489500
C     6.275900    1.802400   -2.363500
C     6.874500    1.083100    3.931600
H     6.878500    0.974700    4.875200
C     7.419500    2.103200    3.241200
H     7.894400    2.841200    3.604700
C     7.362000    3.582800   -1.526200
H     7.814900    4.411600   -1.419400
C     6.874800    3.078400   -2.676500
H     6.917600    3.486200   -3.533600
C     7.456600    2.768500    0.836100
C     5.579200   -0.964300    3.307000
S     3.823100    1.178900    0.535000
O     3.777100    1.861000    1.846900
C     2.268200    0.271700    0.370900
H     2.361300   -0.450700   -0.300100
H     2.015400   -0.135400    1.237100
C     1.198800    1.279700   -0.075800
H     0.503100    1.360100    0.623600
H     0.765800    0.960300   -0.907000
C     1.850200    2.654400   -0.322800
H     1.388600    3.126300   -1.060400
H     1.796000    3.212300    0.492400
C     3.309600    2.390500   -0.690300
H     3.850300    3.217100   -0.623600
H     3.387500    2.025800   -1.607300
N     4.791200   -0.673500   -1.688900
N     4.887500   -1.553100    1.010200
C     4.974100   -0.188200   -2.969000
C     4.110500   -1.862900   -1.848500
C     4.192600   -2.627500    0.489500
C     4.982100   -1.802400    2.363500
C     4.383500   -1.083100   -3.931600
H     4.379500   -0.974700   -4.875200
C     3.838500   -2.103200   -3.241200
H     3.363600   -2.841200   -3.604700
C     3.896000   -3.582800    1.526200
H     3.443100   -4.411600    1.419400
C     4.383200   -3.078400    2.676500
H     4.340400   -3.486200    3.533600
C     3.801400   -2.768500   -0.836100
C     5.678800    0.964300   -3.307000
S     7.434900   -1.178900   -0.535000
O     7.480900   -1.861000   -1.846900
C     8.989800   -0.271700   -0.370900
H     8.896700    0.450700    0.300100
H     9.242600    0.135400   -1.237100
C    10.059200   -1.279700    0.075800
H    10.754900   -1.360100   -0.623600
H    10.492200   -0.960300    0.907000
C     9.407800   -2.654400    0.322800
H     9.869400   -3.126300    1.060400
H     9.462000   -3.212300   -0.492400
C     7.948400   -2.390500    0.690300
H     7.407700   -3.217100    0.623600
H     7.870500   -2.025800    1.607300
C     8.274100    3.969300    1.205600
C     7.670500    5.175200    1.541000
H     6.722600    5.239700    1.547300
C     8.438200    6.288500    1.867600
H     8.013600    7.111000    2.079700
C     9.823100    6.198800    1.884000
H    10.349500    6.958200    2.107500
C    10.434000    4.994500    1.571500
H    11.380600    4.924400    1.596200
C     9.665800    3.889000    1.222700
H    10.093700    3.072200    0.993700
C     5.348200   -1.288900    4.753000
C     6.377100   -1.567300    5.652800
H     7.281300   -1.511400    5.368700
C     6.083600   -1.927100    6.966400
H     6.790600   -2.124600    7.569500
C     4.768000   -1.999700    7.400800
H     4.574000   -2.267900    8.290900
C     3.738700   -1.679300    6.530400
H     2.837600   -1.705700    6.828100
C     4.028900   -1.319000    5.220800
H     3.319400   -1.089400    4.631800
C     2.983900   -3.969300   -1.205600
C     3.587500   -5.175200   -1.541000
H     4.535400   -5.239700   -1.547300
C     2.819800   -6.288500   -1.867600
H     3.244400   -7.111000   -2.079700
C     1.434900   -6.198800   -1.884000
H     0.908500   -6.958200   -2.107500
C     0.824000   -4.994500   -1.571500
H    -0.122600   -4.924400   -1.596200
C     1.592200   -3.889000   -1.222700
H     1.164300   -3.072200   -0.993700
C     5.909800    1.288900   -4.753000
C     4.880900    1.567300   -5.652800
H     3.976700    1.511400   -5.368700
C     5.174400    1.927100   -6.966400
H     4.467400    2.124600   -7.569500
C     6.490000    1.999700   -7.400800
H     6.684000    2.267900   -8.290900
C     7.519300    1.679300   -6.530400
H     8.420400    1.705700   -6.828100
C     7.229100    1.319000   -5.220800
H     7.938600    1.089400   -4.631800

QM/MM links (counting starts at zero)
 15   61
 16   72
 45   83
 46   94
