75
QM: 33 at, MM: 42 at, Links: 2
Fe    3.224100    3.665900    1.395800
S     1.073900    0.820100   -1.846900
N     3.195800    2.249400    3.124100
N     5.326300    3.001600    1.696200
N     2.558700    2.347600   -0.028200
C     6.399200    3.365300    0.979600
H     6.269000    3.913700    0.215300
C     7.681200    2.982600    1.300800
H     8.415000    3.242100    0.755400
C     7.883600    2.212700    2.432200
H     8.760600    1.957600    2.691600
C     6.783600    1.821200    3.178800
H     6.893200    1.294800    3.962400
C     5.533900    2.209800    2.764000
C     4.326800    1.853500    3.545900
H     4.397700    1.343200    4.345400
C     1.951200    1.725900   -0.785400
S     5.374400    6.511700   -1.846900
N     3.252500    5.082400    3.124100
N     1.122000    4.330200    1.696200
N     3.889600    4.984200   -0.028200
C     0.049000    3.966500    0.979600
H     0.179300    3.418100    0.215300
C    -1.232900    4.349200    1.300800
H    -1.966700    4.089700    0.755400
C    -1.435400    5.119100    2.432200
H    -2.312300    5.374200    2.691600
C    -0.335300    5.510600    3.178800
H    -0.444900    6.037000    3.962400
C     0.914400    5.122000    2.764000
C     2.121500    5.478300    3.545900
H     2.050500    5.988600    4.345400
C     4.497000    5.605900   -0.785400
C     2.046700    2.006000    3.951800
C     2.090500    2.146800    5.326800
H     2.915900    2.352000    5.746800
C     0.953100    1.994200    6.099800
H     1.004600    2.094000    7.042400
C    -0.270800    1.693600    5.496200
C    -0.299200    1.536700    4.103600
H    -1.119400    1.321200    3.674700
C     0.853700    1.689200    3.339400
H     0.817600    1.574900    2.396900
C    -1.490800    1.511800    6.272800
C    -1.461200    0.841700    7.513600
H    -0.639700    0.508800    7.852500
C    -2.632200    0.665700    8.237300
H    -2.601200    0.234600    9.082700
C    -3.843200    1.110000    7.741300
H    -4.641500    0.961900    8.233700
C    -3.890900    1.759600    6.551700
H    -4.722700    2.077800    6.219900
C    -2.732800    1.964900    5.813900
H    -2.784400    2.419500    4.980800
C     4.401600    5.325800    3.951800
C     4.357700    5.185000    5.326800
H     3.532400    4.979800    5.746800
C     5.495200    5.337600    6.099800
H     5.443600    5.237800    7.042400
C     6.719100    5.638200    5.496200
C     6.747400    5.795100    4.103600
H     7.567700    6.010600    3.674700
C     5.594500    5.642600    3.339400
H     5.630600    5.756900    2.396900
C     7.939100    5.820000    6.272800
C     7.909400    6.490100    7.513600
H     7.087900    6.823000    7.852500
C     9.080400    6.666100    8.237300
H     9.049500    7.097200    9.082700
C    10.291400    6.221800    7.741300
H    11.089700    6.369900    8.233700
C    10.339100    5.572200    6.551700
H    11.170900    5.254000    6.219900
C     9.181000    5.366900    5.813900
H     9.232600    4.912300    4.980800

QM/MM links (counting starts at zero)
  2   33
 18   54
