143
QM: 45 at, MM: 98 at, Links: 2
Fe    0.277600    3.461000    4.408500
N    -1.616800    4.052000    4.220900
N     0.040100    2.659300    2.654300
N     0.639900    5.173700    3.469200
N    -0.535600    1.861500    5.255400
N     2.140300    2.940600    4.563500
N     0.479400    4.306000    6.143500
C     0.976900    2.042200    1.935800
H     1.825400    1.892200    2.335000
C     0.782300    1.610900    0.635300
H     1.470300    1.157500    0.163000
C    -0.443300    1.856400    0.046600
H    -0.599800    1.602400   -0.854800
C    -1.432200    2.473500    0.775000
H    -2.286700    2.635400    0.395800
C    -1.153400    2.855300    2.078900
C    -2.174400    3.552500    2.927100
H    -2.547500    4.316200    2.421500
H    -2.916600    2.925200    3.120000
C     1.713000    5.501000    2.744100
H     2.437200    4.889000    2.677600
C     1.781200    6.723200    2.085500
H     2.555500    6.948200    1.583300
C     0.750200    7.587500    2.162000
H     0.794300    8.422800    1.713000
C    -0.369100    7.256800    2.893800
H    -1.093200    7.865300    2.967000
C    -0.421200    6.020900    3.519100
C    -1.590700    5.521400    4.284100
H    -1.524500    5.816300    5.225500
H    -2.425100    5.889600    3.901600
C     0.004000    0.641000    5.448300
H     0.936800    0.526700    5.305300
C    -0.728100   -0.431300    5.844100
H    -0.316900   -1.280200    5.960600
C    -2.064100   -0.272700    6.063700
H    -2.587600   -1.021100    6.326400
C    -2.661800    0.959700    5.910700
H    -3.592600    1.077400    6.057000
C    -1.847400    2.023400    5.538100
C    -2.356900    3.409300    5.378500
H    -2.204500    3.925900    6.210000
H    -3.329800    3.394000    5.195500
C     3.255600    2.790500    4.716600
C     0.710100    4.727000    7.164600
C     4.699800    2.563800    4.902800
H     4.854300    2.146200    5.774300
H     5.171200    3.421300    4.859600
H     5.030800    1.974000    4.194300
C     1.015000    5.255500    8.491800
H     0.282800    5.035600    9.107100
H     1.117300    6.228900    8.441900
H     1.847400    4.856600    8.821100
B    -3.797200    6.310700    8.841000
C    -5.046800    6.820400    9.759100
C    -6.081900    7.548300    9.177000
H    -6.051800    7.684700    8.239000
C    -7.147000    8.083500    9.875500
H    -7.841100    8.548900    9.423100
C    -7.179100    7.921600   11.255900
H    -7.901200    8.279600   11.758100
C    -6.192200    7.256800   11.884500
H    -6.204200    7.183500   12.829200
C    -5.143100    6.672100   11.156100
H    -4.483200    6.167500   11.615100
C    -2.818300    5.308300    9.679200
C    -2.106200    5.824900   10.806800
H    -2.192400    6.743700   11.033000
C    -1.269700    4.987900   11.595100
H    -0.806400    5.344100   12.343500
C    -1.135300    3.680400   11.269200
H    -0.579700    3.129800   11.808000
C    -1.767200    3.117800   10.198100
H    -1.662900    2.195600    9.991900
C    -2.583600    3.956500    9.409800
H    -2.998800    3.578100    8.641500
C    -2.880500    7.614800    8.448500
C    -3.101100    8.932500    8.874300
H    -3.859400    9.102900    9.423100
C    -2.282700    9.994500    8.545000
H    -2.477300   10.858700    8.887600
C    -1.187500    9.818900    7.730100
H    -0.629900   10.548500    7.487300
C    -0.930700    8.531900    7.281100
H    -0.178500    8.378500    6.722300
C    -1.747100    7.461300    7.623700
H    -1.534500    6.597100    7.294400
C    -4.449100    5.632200    7.500600
C    -4.475200    6.222000    6.226600
H    -3.987700    7.026600    6.096900
C    -5.169200    5.697000    5.139000
H    -5.149100    6.138500    4.297500
C    -5.875300    4.549800    5.292000
H    -6.350700    4.186700    4.553600
C    -5.907400    3.896900    6.522700
H    -6.382800    3.080300    6.632400
C    -5.219400    4.483300    7.590400
H    -5.283500    4.063900    8.438600
B    -5.426000   -0.150000    0.655300
C    -6.280500    0.542100    1.892600
C    -5.957500    0.410800    3.256300
H    -5.187300   -0.093800    3.495800
C    -6.723800    0.990400    4.274200
H    -6.469000    0.871100    5.178900
C    -7.827000    1.725100    3.974800
H    -8.340500    2.120600    4.670000
C    -8.198100    1.895600    2.644300
H    -8.964400    2.408700    2.421500
C    -7.427800    1.300700    1.653100
H    -7.700700    1.418300    0.748400
C    -4.226400   -1.033000    1.287200
C    -4.154200   -2.434300    1.247300
H    -4.848300   -2.904800    0.801600
C    -3.119200   -3.182600    1.829400
H    -3.127200   -4.132100    1.779500
C    -2.104200   -2.543400    2.468000
H    -1.400100   -3.041100    2.863900
C    -2.104200   -1.164300    2.537900
H    -1.402100   -0.705700    2.983600
C    -3.143200   -0.451700    1.945800
H    -3.111200    0.496100    1.995700
C    -6.463000   -1.102900   -0.192900
C    -7.417800   -1.870000    0.455700
H    -7.453900   -1.832500    1.403700
C    -8.324500   -2.686600   -0.196200
H    -8.972400   -3.167300    0.302700
C    -8.290400   -2.805900   -1.586600
H    -8.892200   -3.377000   -2.045600
C    -7.371700   -2.079700   -2.251800
H    -7.333600   -2.147900   -3.196500
C    -6.479100   -1.232500   -1.606600
H    -5.863200   -0.727900   -2.122100
C    -4.739900    0.975100   -0.309300
C    -3.831300    0.571100   -1.297200
H    -3.586500   -0.347800   -1.337100
C    -3.267600    1.449000   -2.221900
H    -2.651800    1.125100   -2.870500
C    -3.596600    2.768400   -2.198600
H    -3.225500    3.359900   -2.840600
C    -4.467100    3.249100   -1.240700
H    -4.687800    4.171300   -1.204100
C    -5.022800    2.338800   -0.319300
H    -5.628600    2.676300    0.329300

QM/MM links (counting starts at zero)
 43   45
 44   49
