107
QM: 19 at, MM: 88 at, Links: 8
Fe    1.879000   11.875000    4.852400
Cl    0.228800   10.205600    4.691600
Cl    3.502700   13.566200    5.000000
P     3.111900   10.662200    3.400500
P     2.934000   10.627300    6.438200
P     0.521900   12.971000    6.319400
P     0.802200   13.086000    3.246500
C     3.583900    9.100800    4.259200
H     2.793600    8.514300    4.364300
H     4.270500    8.614200    3.737600
C     4.137000    9.493800    5.622600
H     5.010800    9.947000    5.515300
H     4.271400    8.686100    6.179400
C    -0.878400   13.649300    5.332700
H    -1.499200   12.920800    5.078300
H    -1.379700   14.315700    5.867300
C    -0.299400   14.308300    4.080900
H     0.215500   15.116000    4.329300
H    -1.030700   14.578800    3.470400
O     2.394700    8.727400   -0.114800
O     6.358300   12.550900    1.798100
O     2.137900    7.342900    6.616800
O     5.328600   11.588700    9.568200
O     1.793500   13.746600    9.266800
O    -2.118000   11.785200    9.193200
O    -2.412500   11.945200    0.883100
O     1.830200   15.792200    0.371000
C     2.386300   10.085900    1.817100
H     1.457600    9.792300    1.997400
H     2.334500   10.861900    1.205900
C     3.098800    8.962700    1.088600
H     4.034100    9.219700    0.893800
H     3.107600    8.144000    1.645300
C     2.931700    7.699300   -0.901300
H     2.394500    7.597000   -1.715200
H     2.921400    6.861200   -0.394500
H     3.854100    7.922300   -1.146000
C     4.802500   11.219200    2.922400
H     5.301200   11.405300    3.757600
H     5.253000   10.457500    2.479200
C     4.956700   12.420700    2.024800
H     4.475800   12.281200    1.171000
H     4.596600   13.232600    2.464300
C     6.686300   13.712600    1.066600
H     7.657500   13.751600    0.936300
H     6.392100   14.504500    1.560500
H     6.239700   13.685800    0.194700
C     1.908000    9.523800    7.523900
H     1.811100    9.973800    8.401500
H     1.003500    9.470700    7.125600
C     2.374900    8.104900    7.787500
H     3.340300    8.098900    8.007000
H     1.876900    7.718800    8.551300
C     2.523400    5.996200    6.769600
H     2.342000    5.507700    5.939700
H     2.016000    5.591800    7.502600
H     3.481700    5.951200    6.973300
C     3.953300   11.522500    7.661400
H     4.590700   12.093600    7.163100
H     3.354600   12.126500    8.169300
C     4.742300   10.715700    8.656900
H     4.144300   10.084700    9.130500
H     5.441200   10.193100    8.191700
C     5.574900   10.985000   10.809300
H     5.994600   11.635500   11.410000
H     6.174500   10.218700   10.686000
H     4.729200   10.680400   11.197800
C     1.036100   14.555400    7.133600
H     1.294200   15.186700    6.416600
H     0.235800   14.934500    7.575000
C     2.154100   14.546300    8.152800
H     2.978300   14.187700    7.739800
H     2.337400   15.471800    8.453900
C     2.738100   13.864900   10.322400
H     2.460900   13.299600   11.073000
H     2.784400   14.798100   10.616100
H     3.619300   13.577400   10.004400
C    -0.349800   12.030500    7.633000
H    -0.610200   11.150600    7.260500
H     0.291500   11.862100    8.369000
C    -1.587100   12.678200    8.224700
H    -1.351800   13.540800    8.648600
H    -2.255200   12.850100    7.515100
C    -3.377600   12.227600    9.667800
H    -3.718200   11.591600   10.331400
H    -4.006500   12.284800    8.918300
H    -3.280000   13.109600   10.081800
C    -0.311700   12.166400    2.085500
H     0.166200   12.063100    1.225900
H    -0.450600   11.257800    2.454300
C    -1.678700   12.763600    1.790100
H    -2.187100   12.855000    2.634000
H    -1.565700   13.666300    1.400700
C    -3.093300   10.883800    1.537000
H    -3.582100   10.351500    0.873900
H    -3.725700   11.253000    2.189600
H    -2.443600   10.313700    1.997400
C     1.761500   14.148600    2.097500
H     2.321400   14.762800    2.634000
H     2.372200   13.571300    1.575400
C     0.939200   14.975200    1.129500
H     0.426800   14.381400    0.526800
H     0.298000   15.542400    1.627900
C     1.148600   16.440300   -0.688800
H     1.781700   16.992200   -1.193400
H     0.440100   17.008000   -0.322100
H     0.754900   15.767800   -1.283300

QM/MM links (counting starts at zero)
  3   27
  3   37
  4   47
  4   57
  5   67
  5   77
  6   87
  6   97
