79
QM: 53 at, MM: 26 at, Links: 6
H     0.000000    0.000000   10.473700
Fe    0.000000    0.000000   15.569700
S     1.646000    1.289900   14.280700
B     0.000000    0.000000   11.485800
N     1.473300   -0.189500   11.935700
C     2.178300    0.268200   12.991400
N     3.432700   -0.202400   12.894800
C     2.324900   -0.973500   11.175900
H     2.090400   -1.426100   10.374100
C     3.535400   -0.989000   11.756700
H     4.308100   -1.448000   11.450000
S    -1.940100    0.780500   14.280700
C    -1.321400    1.752300   12.991400
N    -0.572500    1.370700   11.935700
N    -0.900800   -1.181100   11.935700
C    -0.856900   -2.020500   12.991400
S     0.294100   -2.070400   14.280700
S    -1.646000   -1.289900   16.858700
C    -2.178300   -0.268200   18.148000
N    -1.473300    0.189500   19.203700
B     0.000000    0.000000   19.653600
H     0.000000    0.000000   20.665700
N     0.572500   -1.370700   19.203700
C     1.321400   -1.752300   18.148000
S     1.940100   -0.780500   16.858700
S    -0.294100    2.070400   16.858700
C     0.856900    2.020500   18.148000
N     0.900800    1.181100   19.203700
C     2.005500    1.526700   19.963500
H     2.280300    1.097300   20.765300
C     2.624200    2.567200   19.382700
N     1.891600    2.871500   18.244600
H     3.408100    3.006900   19.689400
N     1.541000   -3.074000   18.244600
C     0.911200   -3.556200   19.382700
C     0.319400   -2.500200   19.963500
H    -0.189800   -2.523400   20.765300
H     0.900000   -4.455000   19.689400
C    -2.324900    0.973500   19.963500
H    -2.090400    1.426100   20.765300
C    -3.535400    0.989000   19.382700
N    -3.432700    0.202400   18.244600
H    -4.308100    1.448000   19.689400
N    -1.891600   -2.871500   12.894800
C    -2.624200   -2.567200   11.756700
C    -2.005500   -1.526700   11.175900
H    -2.280300   -1.097300   10.374100
H    -3.408100   -3.006900   11.450000
C    -0.319400    2.500200   11.175900
H     0.189800    2.523400   10.374100
C    -0.911200    3.556200   11.756700
N    -1.541000    3.074000   12.894800
H    -0.900000    4.455000   11.450000
O     5.620600    3.001800   12.541400
O     3.721500    2.149500   10.380300
C     4.516600    0.070900   13.815000
H     4.630500    1.039300   13.908400
H     5.345200   -0.322400   13.469300
H     4.308900   -0.319800   14.688500
C     2.196900    3.946900   17.324400
H     1.415200    4.529800   17.231000
H     2.951700    4.467900   17.670100
H     2.431400    3.571700   16.450900
C     2.319700   -3.876000   17.324400
H     3.215300   -3.490500   17.231000
H     2.393400   -4.790200   17.670100
H     1.877500   -3.891500   16.450900
C    -4.516600   -0.070900   17.324400
H    -4.630500   -1.039300   17.231000
H    -5.345200    0.322400   17.670100
H    -4.308900    0.319800   16.450900
C    -2.196900   -3.946900   13.815000
H    -1.415200   -4.529800   13.908400
H    -2.951700   -4.467900   13.469300
H    -2.431400   -3.571700   14.688500
C    -2.319700    3.876000   13.815000
H    -3.215300    3.490500   13.908400
H    -2.393400    4.790200   13.469300
H    -1.877500    3.891500   14.688500

QM/MM links (counting starts at zero)
  6   55
 31   59
 33   63
 41   67
 43   71
 51   75
