96
QM: 23 at, MM: 73 at, Links: 5
I    -5.489900   -5.959100    0.881900
Fe   -4.978000   -3.518300   -0.093200
P    -4.330900   -1.510400   -0.879600
O    -3.819500   -2.937600    2.505100
O    -6.993400   -2.601600    1.711900
O    -3.521800   -4.439500   -1.480700
O    -8.228400   -4.687900   -5.109500
N    -6.025400   -3.983700   -1.698900
C    -4.217200   -3.186600    1.448100
C    -6.638600   -2.883800    0.573800
C    -7.686400   -2.771000   -0.532800
H    -8.531900   -3.114500   -0.206100
H    -7.810800   -1.836400   -0.758900
C    -7.293400   -3.524300   -1.762600
C    -8.078000   -3.738100   -2.867800
H    -8.947600   -3.409300   -2.906300
C    -7.543100   -4.457800   -3.924800
C    -6.263200   -4.979100   -3.848300
H    -5.910600   -5.490400   -4.540900
C    -5.532200   -4.716400   -2.714800
C    -4.140700   -5.241700   -2.493800
H    -4.174600   -6.168100   -2.211300
H    -3.630700   -5.189500   -3.317400
P    -9.487500   -3.895300   -5.672500
O   -10.602900   -5.000100   -5.677600
O    -9.172100   -3.848100   -7.206500
O    -9.791100   -2.639000   -5.014400
C    -2.267400   -4.994300   -1.083900
H    -2.410400   -5.852800   -0.678300
H    -1.843100   -4.408900   -0.452300
H    -1.703400   -5.095300   -1.854800
C   -11.821800   -4.841300   -4.954900
C   -12.059300   -5.719600   -3.907800
H   -11.444000   -6.374800   -3.668000
C   -13.282600   -5.566600   -3.227700
H   -13.493800   -6.136500   -2.524200
C   -14.158100   -4.588100   -3.594700
H   -14.950200   -4.481700   -3.118400
C   -13.893800   -3.772100   -4.639000
H   -14.519000   -3.132600   -4.893100
C   -12.700300   -3.877900   -5.337500
H   -12.505800   -3.307300   -6.046000
C    -8.219700   -2.912700   -7.679700
C    -8.615100   -1.596100   -7.862400
H    -9.478500   -1.326400   -7.643900
C    -7.706600   -0.698900   -8.372500
H    -7.951600    0.184800   -8.525200
C    -6.393900   -1.135200   -8.664400
H    -5.765600   -0.529100   -8.982800
C    -6.042600   -2.442300   -8.480200
H    -5.187700   -2.729400   -8.705200
C    -6.956700   -3.337700   -7.960200
H    -6.712900   -4.221900   -7.802100
C    -4.379400   -0.028300    0.198400
C    -5.073800   -0.020600    1.414100
H    -5.573600   -0.762300    1.669900
C    -5.017200    1.105000    2.243000
H    -5.490000    1.117700    3.043800
C    -4.261900    2.193000    1.876000
H    -4.195900    2.925600    2.444100
C    -3.598700    2.200600    0.664500
H    -3.112100    2.950700    0.409200
C    -3.651600    1.105000   -0.165800
H    -3.199000    1.121300   -0.977800
C    -5.216300   -0.971300   -2.383200
C    -6.150900    0.077400   -2.336500
H    -6.244900    0.579900   -1.560000
C    -6.934700    0.366400   -3.447300
H    -7.560200    1.052800   -3.403300
C    -6.796300   -0.355100   -4.616300
H    -7.318200   -0.148000   -5.356400
C    -5.874700   -1.394000   -4.684300
H    -5.775600   -1.880400   -5.470200
C    -5.102300   -1.700000   -3.572000
H    -4.497400   -2.404500   -3.618700
C    -2.536000   -1.502400   -1.303600
C    -1.637100   -1.701900   -0.257900
H    -1.953400   -1.845800    0.604700
C    -0.269600   -1.686800   -0.501600
H     0.325400   -1.826200    0.200000
C     0.205800   -1.471500   -1.758400
H     1.122000   -1.459700   -1.916900
C    -0.665800   -1.275000   -2.780000
H    -0.336200   -1.134300   -3.637400
C    -2.034000   -1.278800   -2.575900
H    -2.614100   -1.133300   -3.287800
O    -2.684600   -1.666000    6.342100
C    -2.424500   -0.232300    4.500100
H    -2.674600   -0.561700    3.634000
H    -1.489500   -0.396400    4.646700
H    -2.592800    0.712500    4.543500
C    -3.219500   -0.925600    5.544400
C    -4.690500   -0.714000    5.521700
H    -5.082200   -1.097600    6.309600
H    -5.062800   -1.132900    4.742500
H    -4.877500    0.228100    5.498200

QM/MM links (counting starts at zero)
  2   53
  2   64
  2   75
  5   27
  6   23
