94
QM: 55 at, MM: 39 at, Links: 2
Fe   22.261300   13.130600    5.855900
O    23.487500   11.713400    5.161400
O    20.863000   14.500900    6.106500
N    21.485500   13.031000    3.893000
N    19.962300   12.942500    2.281400
N    21.142700   12.407600    1.829400
C    24.140500   11.771800    3.991400
C    24.181000   12.094200    1.553000
H    23.729900   12.283700    0.761300
C    23.475900   12.111000    2.766300
C    19.214700   13.885500    4.441100
C    22.059400   12.500600    2.817800
C    25.500300   11.468100    3.921100
H    25.955900   11.237900    4.698700
C    19.579700   14.423000    5.689600
C    17.845500   13.833300    4.066300
H    17.596500   13.472900    3.246500
C    20.214700   13.326800    3.527600
C    18.571400   14.917100    6.523400
H    18.795500   15.289000    7.345600
C    26.181600   11.500900    2.721800
H    27.094400   11.320200    2.705400
C    16.886300   14.324700    4.935300
H    15.987700   14.292000    4.696400
C    25.501100   11.809000    1.508500
H    25.958800   11.814300    0.698000
C    17.250500   14.861300    6.148700
H    16.596700   15.189900    6.720200
O    21.035000   11.713400    6.550400
C    20.382000   11.771800    7.720400
C    21.046600   12.111000    8.945400
C    20.341600   12.094200   10.158800
H    20.792700   12.283700   10.950500
C    19.021400   11.809000   10.203300
C    18.341000   11.500900    8.989900
C    19.022200   11.468100    7.790600
H    18.566600   11.237900    7.013000
H    17.428100   11.320200    9.006300
H    18.563800   11.814300   11.013700
C    22.463100   12.500600    8.893900
N    23.037000   13.031000    7.818800
O    23.659500   14.500900    5.605200
C    24.942800   14.423000    6.022200
C    25.307900   13.885500    7.270600
C    26.677100   13.833300    7.645400
H    26.926000   13.472900    8.465200
C    27.636300   14.324700    6.776400
H    28.534900   14.292000    7.015300
C    27.272000   14.861300    5.563100
C    25.951100   14.917100    5.188300
H    25.727000   15.289000    4.366100
H    27.925900   15.189900    4.991500
C    24.307800   13.326800    8.184200
N    24.560200   12.942500    9.430300
N    23.379800   12.407600    9.882400
C    21.048700   11.500900    0.646500
C    20.555600   11.299000   -1.656000
H    20.155100   11.653200   -2.417300
C    21.501000    9.581100   -0.538700
H    21.836900    8.713300   -0.555100
C    21.071500   10.130100   -1.721600
H    21.149400    9.675000   -2.529700
C    20.565400   12.078200   -0.496600
H    20.255500   12.954000   -0.501300
C    21.466300   10.208000    0.609000
H    21.722400    9.773300    1.391400
C    23.473800   11.500900   11.065200
C    23.957100   12.078200   12.208300
C    23.966900   11.299000   13.367800
H    24.367400   11.653200   14.129000
C    23.451100   10.130100   13.433400
C    23.021500    9.581100   12.250500
H    22.685600    8.713300   12.266900
C    23.056300   10.208000   11.102700
H    22.800100    9.773300   10.320400
H    23.373100    9.675000   14.241500
H    24.267000   12.954000   12.213000
Na   18.507800    8.035000   17.567600
O    19.313600    9.673200   16.152800
C    19.554800   10.493200   13.939300
H    19.974400   10.227500   13.119500
H    19.919400   11.336200   14.225100
H    18.609400   10.587000   13.801100
C    19.773900    9.590000   14.859800
H    20.736800    9.488100   14.920700
H    19.436600    8.750500   14.503800
O    28.863000   12.137500   16.031000
C    27.798400   13.114300   16.024000
H    27.561000   13.365700   16.930500
H    28.068900   13.912100   15.541500
C    26.909300   12.609500   15.499300
H    26.132800   13.170000   15.564900
H    26.728300   11.763000   15.920900
H    27.121400   12.465200   14.574100

QM/MM links (counting starts at zero)
  5   55
 54   66
