113
QM: 61 at, MM: 52 at, Links: 0
Fe   11.157300    9.410800    5.499900
N    12.312000   10.348400    4.221100
N     9.487400   10.038200    4.660000
N     9.881900    8.642900    6.786000
N    12.719200    8.612300    6.376600
N    11.176500    7.697000    4.538200
N    11.320500   11.107900    6.474300
C    12.126100   12.035800    5.867500
C    12.661000   11.617100    4.554700
C     8.352000    9.669500    5.300800
C    13.418700   12.429500    3.744800
H    13.644500   13.289200    4.014000
C    12.931200    7.297700    6.101300
C    12.745600    9.890700    3.022300
H    12.535900    9.021300    2.767300
C     8.578700    8.882200    6.514500
C    10.779400   11.440400    7.643100
H    10.204300   10.833900    8.051600
C     8.120500   11.151100    3.031700
H     8.065400   11.661600    2.254900
C    10.151200    7.939000    7.895800
H    11.040300    7.756800    8.098800
C     9.356300   10.781000    3.541800
H    10.123900   11.056500    3.097900
C    12.410200   13.255800    6.464900
H    12.964800   13.869300    6.037500
C    10.429800    7.321400    3.506300
H     9.822300    7.933400    3.159300
C     7.865800    7.720600    8.453000
H     7.194200    7.407600    9.015000
C    13.494300   10.678100    2.160500
H    13.761500   10.344200    1.334100
C    13.834900   11.945400    2.531200
H    14.346500   12.478200    1.964500
C    11.027800   12.649300    8.283000
H    10.626500   12.837100    9.100000
C     7.096700   10.020100    4.828600
H     6.333700    9.754400    5.289000
C    12.052600    6.771900    5.031700
C    11.862300   13.552100    7.706900
H    12.062100   14.353400    8.134200
C     7.546500    8.430100    7.326700
H     6.659200    8.605300    7.109500
C    13.572600    9.210500    7.227600
H    13.457200   10.113300    7.416400
C    13.902000    6.547900    6.736400
H    13.977500    5.635300    6.578200
C    11.355800    5.151200    3.435500
H    11.415700    4.305500    3.053000
C     6.987300   10.756000    3.681100
H     6.149500   10.985500    3.348100
C     9.179700    7.474400    8.750500
H     9.411000    7.000000    9.515500
C    10.504600    6.068000    2.923100
H     9.976500    5.859300    2.186400
C    12.135400    5.471200    4.528700
H    12.698100    4.842400    4.916000
C    14.623100    8.524700    7.839100
H    15.224300    8.968400    8.391600
C    14.748400    7.182200    7.600600
H    15.415200    6.698100    8.032700
O     3.720400   13.371300    1.160300
H     3.721100   12.596400    1.426100
O     5.893800   13.275300    1.669600
O     2.266500   14.866700   -0.864900
C     5.012800   15.296500    0.769700
O     5.434300   20.241900    0.738100
H     5.495100   21.019500    0.486400
O     8.750000   16.943600    0.857800
H     9.490700   17.291400    0.802800
O     1.704300   15.762600    1.101700
H     0.973600   15.428700    0.935000
C     7.845300   17.771300    0.406100
C     4.923400   13.859500    1.246700
O     5.480400   19.796700   -1.430900
O     8.096400   18.855000   -0.061400
C     6.451200   17.226000    0.465200
C     6.269200   15.885000    0.802800
H     7.004800   15.375800    1.057800
C     3.918000   16.047700    0.361300
C     5.449500   19.442000   -0.302200
C     4.094500   17.397100    0.054300
H     3.357300   17.907600   -0.193600
C     2.554300   15.469000    0.132200
C     5.343300   17.991100    0.108600
O     2.722300   10.424900    0.199300
O     3.402900   11.127400    2.203900
C     2.562400    8.942000    2.054200
O     4.025900    9.860100    5.003300
O     1.865600   10.376200    4.857400
H     2.065400   10.931300    5.426000
C     1.818000    6.642500    1.697700
C     2.629600    8.709700    3.426100
O     2.342000    4.969000    4.918300
C     2.942200    9.740500    4.472100
O     0.622300    4.667100    0.942100
H     0.535400    4.637900    1.756700
C     1.988400    6.387900    3.069500
C     2.133300    7.905600    1.232500
H     2.053400    8.072600    0.321100
C     2.902600   10.267700    1.435600
C     2.382400    7.432600    3.900700
H     2.483500    7.267100    4.809700
O     1.532400    5.965000   -0.557200
O     1.060400    4.177500    3.284400
C     1.779200    5.076100    3.803900
C     1.311000    5.724400    0.616300
O    -0.909300   15.455100    0.859700
H    -1.418300   16.040800    0.429700
H    -1.286800   14.748400    0.781500
O    -0.212100    1.757000    3.940800
H     0.288400    2.494200    3.796800
H     0.101300    2.188200    4.750700

QM/MM links (counting starts at zero)
