84
QM: 31 at, MM: 53 at, Links: 12
Fe    0.000000    0.000000    3.581500
N     2.923000    2.210200    1.186200
N     2.316000    0.216900    1.558700
N     1.493700    1.033800    2.275000
C     1.887300    2.281500    2.022100
N     3.181200    0.922300    0.897500
N    -3.375600    1.426300    1.186200
N    -1.345800    1.897300    1.558700
N    -1.642200    0.776700    2.275000
C    -2.919400    0.493700    2.022100
N    -2.389300    2.293900    0.897500
N     0.452600   -3.636500    1.186200
N    -0.970200   -2.114200    1.558700
N     0.148500   -1.810500    2.275000
C     1.032200   -2.775100    2.022100
N    -0.791900   -3.216200    0.897500
N    -2.923000   -2.210200    5.976800
N    -2.316000   -0.216900    5.604300
N    -1.493700   -1.033800    4.888000
C    -1.887300   -2.281500    5.140900
N    -3.181200   -0.922300    6.265500
N     3.375600   -1.426300    5.976800
N     1.345800   -1.897300    5.604300
N     1.642200   -0.776700    4.888000
C     2.919400   -0.493700    5.140900
N     2.389300   -2.293900    6.265500
N    -0.452600    3.636500    5.976800
N     0.970200    2.114200    5.604300
N    -0.148500    1.810500    4.888000
C    -1.032200    2.775100    5.140900
N     0.791900    3.216200    6.265500
C     1.358300    3.542500    2.562900
H     0.422000    3.418900    2.823500
H     1.417400    4.241600    1.878300
H     1.883700    3.807500    3.346400
C     3.697000    3.271900    0.565200
H     3.112300    3.809800   -0.008100
H     4.413900    2.879300    0.024000
H     4.087200    3.841200    1.260600
C    -3.747100   -0.594900    2.562900
H    -3.171800   -1.344000    2.823500
H    -4.382000   -0.893300    1.878300
H    -4.239300   -0.272400    3.346400
C    -4.682100    1.565700    0.565200
H    -4.855500    0.790400   -0.008100
H    -4.700500    2.382900    0.024000
H    -5.370200    1.619000    1.260600
C     2.388700   -2.947600    2.562900
H     2.749800   -2.074900    2.823500
H     2.964600   -3.348300    1.878300
H     2.355600   -3.535100    3.346400
C     0.985100   -4.837700    0.565200
H     1.743200   -4.600200   -0.008100
H     0.286600   -5.262200    0.024000
H     1.283000   -5.460200    1.260600
C    -1.358300   -3.542500    4.600100
H    -0.422000   -3.418900    4.339500
H    -1.417400   -4.241600    5.284700
H    -1.883700   -3.807500    3.816600
C    -3.697000   -3.271900    6.597800
H    -3.112300   -3.809800    7.171100
H    -4.413900   -2.879300    7.139000
H    -4.087200   -3.841200    5.902400
C     3.747100    0.594900    4.600100
H     3.171800    1.344000    4.339500
H     4.382000    0.893300    5.284700
H     4.239300    0.272400    3.816600
C     4.682100   -1.565700    6.597800
H     4.855500   -0.790400    7.171100
H     4.700500   -2.382900    7.139000
H     5.370200   -1.619000    5.902400
C    -2.388700    2.947600    4.600100
H    -2.749800    2.074900    4.339500
H    -2.964600    3.348300    5.284700
H    -2.355600    3.535100    3.816600
C    -0.985100    4.837700    6.597800
H    -1.743200    4.600200    7.171100
H    -0.286600    5.262200    7.139000
H    -1.283000    5.460200    5.902400
Cl    5.962900    3.442700    4.038500
O     4.634400    3.633400    3.608700
O     5.962900    3.442700    5.428100
O     6.462000    2.196800    3.608700
O     6.792300    4.497900    3.608700

QM/MM links (counting starts at zero)
  1   35
  4   31
  6   43
  9   39
 11   51
 14   47
 16   59
 19   55
 21   67
 24   63
 26   75
 29   71
