94
QM: 8 at, MM: 86 at, Links: 9
Fe    7.749300    0.687300    5.937900
P     7.947700   -1.105300    7.209900
P     7.241700   -0.057500    3.916700
P     7.921000    2.361000    7.316700
N     9.459700    0.794800    5.434600
N    10.546600    0.851000    5.112700
H     7.108600    1.760700    5.268500
H     6.401000    0.525800    6.403600
C     9.623500   -1.883000    7.274300
C    10.377000   -2.021100    8.422900
C    11.654600   -2.549300    8.372100
C    12.191500   -2.944300    7.169300
C    11.460000   -2.828100    6.013900
C    10.187000   -2.296200    6.076600
C     6.866100   -2.527300    6.747500
C     7.313000   -3.854000    6.810100
C     6.501100   -4.901800    6.412000
C     5.249600   -4.641400    5.951300
C     4.761400   -3.350200    5.903800
C     5.577900   -2.303600    6.310400
C     7.536100   -1.003800    9.010700
C     6.118000   -0.558800    9.297000
C     8.085600   -1.578500    3.291600
C     9.355300   -1.485600    2.734200
C    10.080600   -2.628800    2.429300
C     9.535200   -3.874700    2.673200
C     8.282100   -3.990900    3.220400
C     7.555900   -2.847700    3.530400
C     5.489200   -0.304500    3.401700
C     5.115600   -1.112700    2.337800
C     3.797100   -0.119200    1.919400
C     2.832100   -0.454800    2.561400
C     3.184600    0.366800    3.630400
C     4.504900    0.426700    4.038700
C     7.764900    1.182400    2.647800
C     7.577000    0.863200    1.170600
C     8.891800    2.125100    8.880300
C     8.389700    2.335400   10.147500
C     9.138600    2.045600   11.280800
C    10.420800    1.561400   11.150300
C    10.944000    1.367000    9.884900
C    10.182200    1.644500    8.768500
C     8.796200    3.845400    6.637300
C     9.265400    4.839400    7.484400
C     9.889000    5.970400    6.984600
C    10.052400    6.119600    5.610700
C     9.573100    5.145100    4.755200
C     8.951400    4.026400    5.265200
C     6.390700    3.176600    7.931600
C     5.427000    3.614300    6.842300
H    10.005600   -1.748500    9.232700
H    12.116500   -2.677700    9.198800
H    12.999100   -3.264600    7.132000
H    11.816700   -3.093400    5.217700
H     9.751600   -2.225300    5.437900
H     8.245200   -4.047100    7.064300
H     6.869000   -5.746700    6.454400
H     4.676200   -5.294300    5.692100
H     3.896200   -3.154600    5.607400
H     5.226400   -1.467200    6.234200
H     7.757000   -1.846300    9.419000
H     8.179200   -0.427900    9.351200
H     5.975900   -0.403500   10.299900
H     5.885300    0.207900    8.809100
H     5.463000   -1.210500    8.978500
H     9.762900   -0.648000    2.642700
H    10.928800   -2.531000    2.049800
H     9.964900   -4.585100    2.439500
H     7.926700   -4.817400    3.455900
H     6.724200   -2.946700    3.879400
H     5.789500   -1.565100    1.914300
H     1.943900   -0.550200    2.303900
H     2.484000    0.807000    4.082700
H     4.741200    0.941500    4.760300
H     7.339800    1.968500    2.846000
H     8.643000    1.345000    2.846000
H     6.616200    0.758100    1.067300
H     7.855500    1.601700    0.576000
H     8.057200    0.171200    0.914800
H     7.563600    2.677700   10.283000
H     8.819600    2.164200   12.061700
H    10.921400    1.345000   11.909300
H    11.767300    1.051500    9.808600
H    10.520600    1.491700    7.945200
H     9.097700    4.756300    8.436400
H    10.172100    6.712600    7.538600
H    10.577600    6.834900    5.336300
H     9.734400    5.245400    3.845500
H     8.650800    3.411300    4.760300
H     5.949700    2.579900    8.521100
H     6.693100    3.973800    8.504200
H     4.656600    4.022700    7.284500
H     5.887300    4.218300    6.166400
H     5.107000    2.873300    6.420500

QM/MM links (counting starts at zero)
  1    8
  1   14
  1   20
  2   22
  2   28
  2   34
  3   36
  3   42
  3   48
