118
QM: 20 at, MM: 98 at, Links: 10
Fe    8.370700   14.862200   11.090500
P     6.842100   13.259400   11.640600
P     9.058700   14.785600   13.282200
P     9.900500   13.272300   10.560900
N     9.666100   16.292600   10.732100
N     7.065600   16.304900   11.334700
N     7.908200   15.038800    9.183300
C     9.056900   13.075200   13.960800
H     9.833900   12.981400   14.533800
H     8.272500   12.978800   14.523400
C    10.407900   17.114200   10.475500
C     7.732500   15.273100    8.080600
C     7.673900   11.746000   12.286500
H     7.078700   11.332800   12.931600
H     7.771900   11.123700   11.548700
C     6.339100   17.181800   11.334700
C     9.065400   11.908100   12.959500
C    10.187100   12.038600   11.906100
H    10.322600   11.169300   11.497400
H    11.008700   12.274400   12.364700
C    11.550100   13.916200   10.089400
C     9.555200   12.177000    9.115200
C    10.765800   15.420900   13.600000
C     5.611800   13.786400   12.900300
C    11.625300   14.674300    8.928700
H    10.859600   14.808600    8.418000
C     5.524000   13.241500   14.175300
H     6.097800   12.555200   14.428900
C     7.807300   17.081500   14.274300
H     7.962900   17.432200   13.427000
C     8.143000   15.753500   14.550900
C     5.076700   13.358500    9.438400
H     5.277300   14.266400    9.416400
C     5.667000   12.544500   10.408200
C     7.326100   16.051200   16.796500
H     7.157200   15.704400   17.642700
C    12.826400   15.233300    8.520800
H    12.859700   15.732600    7.736900
C     8.284700   12.040100    8.578200
H     7.589000   12.552600    8.923900
C     4.693100   14.773500   12.518500
H     4.704700   15.103100   11.648900
C     8.020700   11.156100    7.535500
H     7.152700   11.064700    7.211600
C     7.895700   15.244300   15.827600
H     8.115000   14.362600   16.026600
C     9.346200   10.620400   13.761600
H    10.228300   10.661700   14.135700
H     8.702300   10.536500   14.468300
H     9.281000    9.860100   13.179300
C     5.323800   11.186000   10.444400
H     5.687300   10.633100   11.098000
C     9.042000   10.416900    6.983700
H     8.874100    9.830700    6.281500
C    12.265800   17.317400   13.692700
H    12.406700   18.234700   13.630300
C    13.332000   16.472500   13.971700
H    14.186400   16.820600   14.091300
C     3.724400   14.742500   14.715800
H     3.121500   15.084400   15.337600
C    10.994200   16.799300   13.506800
H    10.286100   17.372000   13.318300
C    10.583000   11.417700    8.546500
H    11.448300   11.488700    8.879600
C    12.709800   13.722300   10.816900
H    12.691200   13.208400   11.591500
C     7.007600   17.360200   16.521400
H     6.633900   17.897600   17.181800
C     4.440400   10.662400    9.505300
H     4.221100    9.759000    9.532200
C    13.961900   15.058200    9.260700
H    14.762200   15.452500    8.995400
C    11.402200   18.132300   10.173000
H    11.434800   18.275800    9.225100
H    11.166000   18.952200   10.613100
H    12.263800   17.840400   10.482400
C    11.837400   14.593000   13.901200
H    11.700100   13.677600   13.991500
C     4.573300   13.726000   15.074000
H     4.515200   13.354200   15.924800
C     5.387500   18.278400   11.379400
H     4.713200   18.145000   10.710100
H     4.975400   18.307600   12.246700
H     5.844800   19.105400   11.215100
C     3.766300   15.263200   13.428800
H     3.175200   15.936100   13.177300
C     7.509000   15.510400    6.664300
H     8.126600   14.985400    6.150700
H     6.610400   15.260000    6.435200
H     7.640800   16.440900    6.470800
C    13.117200   15.118200   14.069900
H    13.830700   14.549100   14.250100
C     7.245600   17.876300   15.257800
H     7.026100   18.760300   15.069800
C    10.319100   10.558900    7.488400
H    11.015200   10.070100    7.112600
C     3.885800   11.474300    8.532100
H     3.309800   11.114800    7.896500
C    13.908500   14.295900   10.391400
H    14.682400   14.157600   10.886400
C     4.194500   12.827600    8.506500
H     3.808200   13.379600    7.864800
F     2.900300    1.749100   12.542900
F     3.574100    0.586900   14.331700
F     1.366900    1.059100   14.086200
F     2.376400   -0.423800   12.752200
B     2.541700    0.768000   13.446600
F     3.871800   16.414800    9.033800
F     4.285400   15.729000    6.923700
B     3.991700   16.810000    7.708400
F     2.793200   17.326600    7.327200
F     4.922200   17.748900    7.605400
C     1.260600   11.630500   13.056900
N     0.159400   11.541400   13.363000
C     2.614000   11.765900   12.648600
H     2.728400   11.366100   11.783300
H     2.844200   12.696500   12.603100
H     3.185900   11.326800   13.282200

QM/MM links (counting starts at zero)
  1   23
  1   33
  2   22
  2   30
  3   20
  3   21
 10   72
 11   86
 15   80
 16   46
