78
QM: 61 at, MM: 17 at, Links: 0
I     9.398000    2.760200   18.922400
I     4.581700   -2.478400    6.945600
Fe    4.143100    1.576300   13.448600
N     2.766900    2.965600   12.524200
N     2.782000    1.442000   15.112900
C     4.010900    6.885900   12.835300
H     4.310900    7.763500   12.915400
C     0.975700   -1.420900   13.700400
H     0.971700   -1.957600   12.939900
O     5.029900    1.379200   11.775300
O     5.523200    0.753900   14.488000
C     0.937100    0.194900   16.018000
C     4.700900    5.882100   13.482200
H     5.459100    6.095200   13.976700
C     1.884100    0.409200   15.013500
C     3.988100   -1.409600    9.686200
H     3.402100   -2.131000    9.705600
C     5.830600    3.620600   14.910200
H     6.066700    4.500400   15.100000
N     2.937000   -0.097500   12.924400
C     1.911800   -0.417000   13.842400
C     3.109700   -0.816400   11.850200
H     2.583400   -1.578800   11.768900
N     4.914400    3.455800   14.000000
C     7.131200    0.328200   16.152300
H     7.037500   -0.585300   16.005100
C    -0.021700   -0.870400   15.836000
H    -0.668000   -1.039300   16.482800
C     4.760200   -1.246700    8.593900
C     3.146000    4.274600   12.618400
C     4.899800    0.537600   10.816000
C     4.017900   -0.552900   10.794000
C     7.422600    3.010700   16.655900
H     7.514300    3.916700   16.847000
C     2.751400    2.210500   16.218200
H     3.371500    2.897600   16.306000
C     6.509700    2.623300   15.646200
C     1.334900    4.933300   11.173600
H     0.865200    5.586300   10.706200
C     2.437900    5.289000   11.948300
C     5.662300   -0.170600    8.583600
H     6.211600   -0.018700    7.848900
C     4.292800    4.580100   13.408600
C     1.697100    2.664200   11.808900
H     1.424400    1.776600   11.768900
C     0.036300   -1.620800   14.707500
H    -0.584700   -2.305800   14.600300
C     1.842400    2.014000   17.209800
H     1.837500    2.584600   17.943100
C     8.010100    0.770700   17.094900
H     8.517800    0.156400   17.575200
C     0.963800    1.024400   17.147800
H     0.371100    0.881400   17.850200
C     8.156200    2.138400   17.346600
C     2.890400    6.628400   12.074900
H     2.438400    7.321400   11.650100
C     5.719800    0.661000    9.686200
H     6.345700    1.348100    9.678500
C     6.356200    1.239600   15.394400
C     0.946900    3.638600   11.100000
H     0.204100    3.391900   10.596500
S     1.537500    8.673600   16.290500
F     1.009500    7.749300   18.689400
C     0.400300    8.206700   17.635800
O     2.354600    9.631200   16.927000
O     0.681700    9.190200   15.300200
F    -0.288600    9.242600   18.050300
O     2.155500    7.431800   15.936700
F    -0.491400    7.384000   17.200700
O     4.015700    5.465200   16.627500
H     3.785700    6.217900   16.396300
C     3.831000    5.325200   17.990900
H     2.889800    5.451400   18.188500
H     4.063000    4.417800   18.241400
C     4.560300    6.192100   18.772100
H     5.494800    5.994700   18.681700
H     4.299400    6.090300   19.690100
H     4.393300    7.093600   18.489300

QM/MM links (counting starts at zero)
