79
QM: 55 at, MM: 24 at, Links: 0
Fe    3.037500    2.298800    3.744800
N     4.263000    0.740400    3.915700
N     1.519000    1.035900    3.894600
N     3.030900    2.427000    5.725100
N     4.687200    3.281200    3.507600
N     2.721600    2.123200    1.845600
N     1.986100    3.908500    3.849700
N     6.802300    3.213600    2.961600
H     7.561400    2.904700    2.621900
N     1.256900    1.747600    0.268800
H     0.528200    1.506500   -0.128200
N     1.502500    5.714300    4.972400
H     1.496400    6.272300    5.610700
C     3.486700   -0.435300    3.399300
H     3.936500   -1.258600    3.669700
H     3.500000   -0.361500    2.474500
C     2.075000   -0.372800    3.961900
H     1.525000   -0.950700    3.501700
H     2.043800   -0.635500    4.922500
C     0.821300    1.398700    5.173800
H     0.330200    2.180100    5.009400
H     0.227400    0.712500    5.447100
C     1.871100    1.605900    6.253000
H     2.249600    0.776100    6.558400
H     1.476900    2.084500    6.990200
C     4.338100    1.844100    6.172400
H     4.997100    2.485400    6.004200
H     4.300300    1.644800    7.103700
C     4.608200    0.568300    5.383000
H     4.097800   -0.176100    5.721300
H     5.546700    0.325800    5.457500
C     5.482700    1.018100    3.084100
H     5.269900    0.778000    2.162100
H     6.230800    0.508400    3.400000
C     5.702900    2.489900    3.183200
C     6.475200    4.541600    3.145800
H     7.131600    5.190900    3.056600
C     5.160500    4.583300    3.496600
H     4.617400    5.325800    3.737500
C     0.622200    1.229500    2.705000
H    -0.015700    1.952100    2.929900
H     0.121500    0.398000    2.493700
C     1.504600    1.659800    1.579300
C     2.371800    2.283000   -0.342200
H     2.387600    2.390700   -1.264500
C     3.279000    2.521200    0.641700
H     4.130400    2.851800    0.593900
C     2.900000    3.878000    6.106200
H     3.807500    4.275200    6.142800
H     2.505900    3.954200    6.950400
C     2.094200    4.518500    5.027100
C     0.998400    5.889700    3.703200
H     0.562500    6.670200    3.436900
C     1.295900    4.761800    3.006000
H     1.098400    4.556000    2.114900
S     3.371100    8.662900   -0.043000
F     2.773000    6.270200    0.762400
F     4.803900    6.485800    0.089500
F     4.187500    7.281000    2.004700
O     2.388800    9.234600    0.852700
O     2.817600    8.264600   -1.319800
O     4.619500    9.353800   -0.108800
C     3.807600    7.086700    0.748000
S    -1.124400    3.637200    7.841800
F    -3.462900    3.580500    6.664600
F    -1.808400    4.026800    5.351200
F    -2.546800    5.523900    6.725400
O    -1.714700    4.013400    9.100800
O    -1.052200    2.217600    7.591100
O     0.085100    4.357300    7.491400
C    -2.300000    4.225400    6.579600
S     8.715800   -1.418700    4.544300
F     6.421900   -2.049200    3.441200
F     7.558900   -3.735200    4.144600
F     6.536300   -2.459000    5.555600
O     9.486800   -2.051500    5.586400
O     9.303900   -1.523700    3.229700
O     8.164500   -0.130600    4.881800
C     7.230800   -2.472000    4.422000

QM/MM links (counting starts at zero)
