122
QM: 50 at, MM: 72 at, Links: 2
Fe   -0.299900    3.441400    3.345500
Cl   -0.176100    4.780900    5.316400
Cl    1.367700    4.561100    2.227400
O    -1.743600    4.513000    2.707000
C    -2.988100    4.112300    2.485500
C    -3.648300    4.522200    1.258000
C    -4.976600    4.181000    1.040800
C    -5.681400    3.413900    1.954800
C    -5.048800    3.022400    3.132700
C    -3.705700    3.317800    3.360100
C    -3.068200    2.846100    4.648800
N    -1.791900    2.049300    4.411200
N    -0.785100    2.072200    1.833900
N    -2.184600    0.451100    1.113700
C    -0.681300    1.978300    0.424200
C     0.013300    2.713300   -0.476700
C    -0.110700    2.422500   -1.829500
C    -0.883200    1.378400   -2.247900
C    -1.636200    0.643400   -1.389200
C    -1.487500    0.961700   -0.010200
C    -1.721700    1.103600    2.142900
C    -2.064100    0.863200    3.562700
N     0.870800    1.964600    4.335400
N     1.078100    0.567800    6.083200
C     2.200100    1.536400    4.460700
C     3.327700    1.854700    3.625400
C     4.535500    1.302800    4.013200
C     4.624600    0.478500    5.119600
C     3.566800    0.123600    5.901000
C     2.336100    0.684600    5.542400
C     0.244800    1.371500    5.377600
C    -1.170300    1.660000    5.679400
H    -5.380800    4.432900    0.207000
H    -5.555900    2.546100    3.794500
H    -2.887400    3.606300    5.207100
H    -3.695200    2.282800    5.109400
H    -2.780100   -0.224400    1.106400
H     0.584900    3.432300   -0.198300
H     0.337000    2.981200   -2.469400
H    -0.871100    1.165500   -3.183700
H    -2.239400   -0.045800   -1.676400
H    -3.002000    0.668600    3.632700
H    -1.575000    0.103000    3.883400
H     0.843300    0.043500    6.774200
H     3.257500    2.420200    2.852800
H     5.332100    1.515800    3.523400
H     5.482500    0.093900    5.313500
H     3.658600   -0.453400    6.661900
H    -1.614700    0.890700    6.042400
H    -1.222100    2.379000    6.313500
C    -7.134900    3.072800    1.702700
C    -2.827800    5.305200    0.291600
N    -2.447500    6.713400    0.750700
N    -3.220600    6.814100    3.749300
N    -5.215400    7.301900    3.208500
C    -3.919400    6.736300    4.930100
C    -3.548800    6.315000    6.186700
C    -4.492500    6.369900    7.159000
C    -5.733700    6.818700    6.861600
C    -6.214000    7.173600    5.573000
C    -5.182600    7.123300    4.612300
C    -3.978600    7.164500    2.747900
C    -3.646300    7.432400    1.322200
C    -1.384100    6.305800   -2.494200
O     0.799700    7.821600    0.005800
C    -0.920400    6.969800   -1.317800
C     0.440300    7.150700   -1.150200
C     1.347700    6.608100   -2.051100
C     0.828800    5.967000   -3.144400
C    -0.526300    5.770000   -3.441700
C    -1.984800    7.592600   -0.427100
C     2.234400    7.959000    0.312000
H    -7.395400    2.401900    2.338200
H    -7.249600    2.731600    0.812000
H    -7.681600    3.853600    1.819300
H    -3.289500    5.346400   -0.549600
H    -2.016100    4.808400    0.161800
H    -2.335800    6.665300    3.672100
H    -5.940700    7.494200    2.712900
H    -2.662100    5.987600    6.351400
H    -4.294100    6.104300    8.059900
H    -6.390900    6.864500    7.561400
H    -7.102900    7.491900    5.396600
H    -4.406000    7.196500    0.784300
H    -3.506300    8.375700    1.217200
H    -2.335000    6.301300   -2.626900
H     2.294200    6.722600   -1.933000
H     1.471200    5.614300   -3.765400
H    -0.851100    5.266300   -4.191000
H    -1.610200    8.391800   -0.048100
H    -2.750500    7.851400   -0.946100
H     2.365900    8.055200    1.258000
H     2.577400    8.732900   -0.141400
H     2.697500    7.175900    0.002900
Cl    1.716900    0.343500    9.688200
O     0.821100    1.190600   10.253800
O     0.996500   -0.561000    8.850000
O     2.647600    1.094500    8.892300
O     2.356200   -0.350300   10.718800
Cl    1.596300    2.761400   -5.657500
O     0.314700    3.356700   -5.594800
O     2.499100    3.691000   -6.226100
O     1.437000    1.602800   -6.418500
O     2.015600    2.466000   -4.347000
O     4.601100    4.306900   10.132800
C     5.699600    2.917100   11.732000
C     5.167900    3.038400   10.468100
H     4.043500    4.206200    9.539500
H     6.051900    3.757400   12.030800
H     6.379300    2.241600   11.799000
H     4.950600    2.672100   12.278600
H     5.919600    2.903300    9.885000
H     4.531900    2.340100   10.297600
O    -4.383000   -1.057800    1.610800
C    -5.350800   -0.238100   -0.396500
C    -5.562100   -0.931900    0.833800
H    -4.518100   -0.664000    2.317800
H    -6.204000    0.087000   -0.693900
H    -4.969300   -0.801400   -1.072900
H    -4.765700    0.506000   -0.230300
H    -6.279500   -0.535800    1.338200
H    -5.837700   -1.818000    0.590400

QM/MM links (counting starts at zero)
  5   51
  7   50
