96
QM: 31 at, MM: 65 at, Links: 6
Fe    3.104200    1.867900    0.826400
N     3.169600    0.639000   -0.691600
N     4.061900   -1.177700   -1.568200
N     3.989600    0.321500    1.711200
N     3.349200    3.161600    2.302400
N     1.232300    1.357100    1.192700
N     2.185200    3.241900   -0.238800
N     0.279700    3.990300   -1.072900
N     4.870400    2.568100    0.349000
N     6.469000    4.048900    0.714400
C     2.891200    0.624100   -2.030500
H     2.394500    1.283000   -2.500600
C     3.445900   -0.495700   -2.579100
H     3.409700   -0.752800   -3.493500
C     3.876100   -0.463300   -0.432300
C     4.339200   -0.638900    0.916800
H     4.852900   -1.387900    1.197900
C     0.327500    2.002800    0.533100
H    -0.598500    1.797300    0.577900
C     0.864600    3.066500   -0.278300
C     1.281800    4.801500   -1.550400
H     1.182200    5.542800   -2.134200
C     2.454200    4.328400   -1.019800
H     3.316500    4.698000   -1.172000
C     4.406900    3.896400    2.237500
H     4.598600    4.588800    2.859000
C     5.272400    3.565600    1.128000
C     6.828300    3.321700   -0.389200
H     7.615600    3.438000   -0.907300
C     5.846500    2.397900   -0.606200
H     5.839000    1.748500   -1.299600
O     6.818800   -0.919300   -1.350400
O    -1.276900    6.223100   -2.399700
O     6.079800    6.591600   -0.424100
N     2.194600    1.008600    3.961200
C     4.958000   -2.332500   -1.728500
H     4.553700   -2.981200   -2.357000
H     5.078000   -2.782900   -0.855600
C     6.301700   -1.883500   -2.256900
H     6.917300   -2.655000   -2.323100
H     6.198500   -1.485600   -3.157700
C     8.036800   -0.363500   -1.812900
H     7.896000    0.050300   -2.691100
H     8.709900   -1.071800   -1.892000
H     8.349300    0.314600   -1.178500
C     4.416700    0.261500    3.106500
H     4.859200    1.113400    3.348200
H     5.078200   -0.466900    3.214200
C     3.236300    0.017000    4.057400
H     2.848200   -0.872100    3.861500
H     3.575100   -0.001400    4.988400
C     0.875600    0.625000    3.537100
H     0.251800    1.373500    3.714600
H     0.578700   -0.148000    4.079500
C     0.789600    0.250100    2.054400
H     1.355200   -0.544500    1.884000
H    -0.145200    0.014400    1.829100
C    -1.156400    4.073100   -1.393000
H    -1.656800    3.476800   -0.781300
H    -1.300000    3.745500   -2.316600
C    -1.708900    5.472400   -1.276200
H    -2.697400    5.443700   -1.247900
H    -1.384400    5.894800   -0.442300
C    -1.796000    7.534100   -2.369900
H    -1.455800    8.038400   -3.138300
H    -1.520000    7.976600   -1.540100
H    -2.775200    7.499600   -2.410200
C     2.432500    2.336800    4.457400
H     3.319600    2.357600    4.896400
H     1.752400    2.544400    5.146600
C     2.392000    3.426700    3.383900
H     1.477900    3.479700    3.005900
H     2.601500    4.301500    3.798600
C     7.138400    5.248300    1.211400
H     8.026700    5.328700    0.779700
H     7.281600    5.162100    2.187500
C     6.339200    6.495400    0.936300
H     6.055300    7.120300    1.593400
C     4.999700    7.491000   -0.705500
H     4.857600    7.537000   -1.674100
H     5.219300    8.383200   -0.364800
H     4.182600    7.167700   -0.271200
P     5.536000   10.300900    2.800800
F     5.817100   10.165100    4.366200
F     5.274800   10.453300    1.231600
F     6.886300    9.495500    2.493500
F     4.721800    8.933900    2.819000
F     4.199300   11.124700    3.107000
F     6.372200   11.675100    2.776200
P    -1.518600   11.782300    5.245700
F    -1.717500   13.341600    4.981300
F    -1.346700   10.216300    5.520300
F    -0.386200   11.723500    4.117700
F    -0.419100   12.104700    6.351700
F    -2.668300   11.837000    6.368300
F    -2.633600   11.448800    4.153900

QM/MM links (counting starts at zero)
  2   35
  3   45
  4   70
  5   54
  7   57
  9   73
