77
QM: 22 at, MM: 55 at, Links: 7
Fe   -1.282600    5.152000   10.815100
O    -3.554600    4.531100    9.134400
O     0.518100    3.164800   11.935100
O    -3.505600    6.812700   10.028300
O    -0.446200    4.728500   13.556400
O    -1.994800    6.146700    8.203400
O     1.319700    5.454800   12.018300
B    -3.351500    5.970100    8.835300
B     0.765700    4.311900   12.806600
N    -2.520800    4.023000    9.900400
N    -0.482800    3.438100   11.041300
N    -2.700100    6.421000   11.036300
N    -1.397100    5.282300   12.714700
N    -0.995000    5.953500    9.130700
N     0.509600    5.844400   11.004000
C    -2.191200    2.771000    9.741500
C    -1.045500    2.417800   10.475200
H    -0.720000    1.528400   10.548400
C    -3.034000    6.802300   12.256600
C    -2.188700    6.175800   13.247300
C     0.110300    6.650600    8.903500
C     1.051000    6.466700    9.987300
F    -4.272000    6.328500    7.896700
F     1.699200    3.961700   13.741400
C    -2.970200    1.785000    8.857600
H    -3.728000    2.247400    8.441700
H    -3.301700    1.045200    9.407600
H    -2.378400    1.434900    8.159900
C    -4.093700    7.776900   12.560800
C    -4.933000    7.575300   13.670600
H    -4.879900    6.766000   14.166000
C    -5.842700    8.563400   14.045500
H    -6.410200    8.424200   14.794100
C    -5.921500    9.751000   13.328000
H    -6.547600   10.419100   13.585000
C    -5.085000    9.964000   12.231800
H    -5.122100   10.782700   11.752600
C    -4.202400    8.969700   11.850700
H    -3.655300    9.103700   11.084700
C    -2.199400    6.531200   14.688600
C    -2.118800    7.870400   15.072200
H    -2.050900    8.554100   14.416700
C    -2.137900    8.193600   16.421600
H    -2.037300    9.100600   16.686100
C    -2.299900    7.228300   17.376300
H    -2.317900    7.460000   18.297400
C    -2.438400    5.905700   16.980300
H    -2.591500    5.238600   17.638200
C    -2.358200    5.541000   15.678000
H    -2.410600    4.624600   15.433500
C     0.259700    7.532800    7.722900
C     0.378600    6.963400    6.439300
H     0.452900    6.021000    6.344900
C     0.390000    7.755100    5.331900
H     0.476400    7.366500    4.469100
C     0.274700    9.133800    5.467300
H     0.261700    9.685600    4.693800
C     0.178400    9.697000    6.698800
H     0.119500   10.641400    6.779400
C     0.166600    8.910500    7.843400
H     0.095700    9.313600    8.699900
C     2.491500    6.903100    9.930200
C     3.126100    7.396600   11.048700
H     2.644600    7.504700   11.860600
C     4.466800    7.733300   10.985400
H     4.906300    8.077200   11.755100
C     5.174000    7.570200    9.796100
H     6.097000    7.790400    9.760100
C     4.550400    7.098400    8.691300
H     5.037000    6.997700    7.881800
C     3.201100    6.760800    8.733500
H     2.763300    6.436600    7.955100
Cl   -0.445700    3.296700    6.850200
Cl   -0.981200    4.378300    4.320200
C    -1.667100    3.840100    5.787500
H    -2.302500    3.102500    5.606300
H    -2.169900    4.582000    6.209600

QM/MM links (counting starts at zero)
  7   22
  8   23
 15   24
 18   28
 19   39
 20   50
 21   61
