80
QM: 21 at, MM: 59 at, Links: 8
Fe   11.757100    5.637200   12.002300
B    14.531800    4.720600   11.722600
B     8.992700    6.616600   12.302100
O    14.017900    4.069700   12.925600
O     9.577200    6.511900   13.681100
O    13.771500    4.194900   10.510400
O     8.906900    5.269200   11.686200
O    14.568200    6.150000   11.762000
O     9.678600    7.568000   11.505600
N    12.789700    4.590900   13.241200
N    10.801500    5.867800   13.628000
N    12.432100    4.538500   10.639400
N    10.168500    4.768400   11.357000
N    13.310600    6.705400   11.775700
N    11.030300    7.249400   11.434300
C    12.434200    4.561300   14.517100
C    11.192700    5.271400   14.727900
C    11.614900    3.671300    9.959700
C    10.202900    4.042400   10.336000
C    13.220100    7.923100   11.316000
C    11.811500    8.330500   11.237100
F    15.819100    4.233500   11.540500
F     7.683500    7.040000   12.502400
C    13.252400    3.937700   15.585100
H    13.646800    3.106900   15.249800
H    12.684400    3.739600   16.358800
H    13.965400    4.554500   15.852100
C    10.486600    5.296500   16.023500
H     9.839500    6.033900   16.028100
H    11.135600    5.428500   16.745700
H    10.015500    4.447500   16.155500
C    12.035000    2.651700    9.085900
C    11.521100    1.399800    9.220900
H    10.903300    1.235900    9.923300
C    11.854400    0.377800    8.392600
H    11.476200   -0.484800    8.517000
C    12.758100    0.610000    7.359400
H    13.011300   -0.093300    6.773800
C    13.269900    1.845900    7.200100
H    13.865900    2.012100    6.479500
C    12.949100    2.865600    8.054200
H    13.349100    3.719100    7.943500
C     9.088800    3.573500    9.475800
C     7.931800    3.157000   10.046200
H     7.838200    3.168300   10.991300
C     6.872900    2.706300    9.245200
H     6.095200    2.333000    9.642600
C     6.970800    2.811000    7.896500
H     6.238800    2.553800    7.348800
C     8.097500    3.277600    7.330600
H     8.157700    3.334500    6.385400
C     9.171100    3.678200    8.108900
H     9.957100    4.021900    7.700800
C    14.305700    8.781200   10.907900
C    14.208800    9.600600    9.786800
H    13.419300    9.573300    9.260300
C    15.230500   10.447300    9.425700
H    15.144100   10.998100    8.658100
C    16.405400   10.492800   10.202500
H    17.097900   11.107400    9.990100
C    16.538900    9.637000   11.272000
H    17.347300    9.634700   11.771100
C    15.515100    8.788000   11.627000
H    15.625700    8.198500   12.364300
C    11.330100    9.655200   11.008000
C    10.450200    9.951100    9.977900
H    10.131500    9.252300    9.421100
C    10.034500   11.232600    9.751900
H     9.391600   11.416900    9.076800
C    10.566500   12.281800   10.525600
H    10.324900   13.183200   10.345100
C    11.436000   11.990500   11.543600
H    11.768200   12.680200   12.107900
C    11.815300   10.693100   11.733200
H    12.455100   10.506500   12.411300
Cl    6.662600    4.611400   15.750500
Cl    8.077600    2.754100   14.024000
C     7.029500    4.097000   14.121100
H     6.182500    3.869400   13.661400
H     7.441100    4.854900   13.634100

QM/MM links (counting starts at zero)
  1   21
  2   22
 15   23
 16   27
 17   31
 18   42
 19   53
 20   64
