135
QM: 13 at, MM: 122 at, Links: 0
C    11.525600   11.718000   14.649900
C    10.459500   11.848300   12.144800
C    13.090900   11.856500   12.493800
C    11.987600   14.054500   11.641900
C    13.039700   13.922000   14.141300
Fe   11.654000   12.957900   13.175800
N    10.518400   13.956700   13.753400
N    11.344000   11.042400   15.550400
N     9.728300   11.192400   11.544900
N    13.923600   11.186300   12.106100
N    12.200100   14.688600   10.705300
N    13.749200   14.524300   14.764800
O     9.788400   14.607900   14.255500
C     2.868600   10.080800    7.952800
C     3.424300    9.943900    6.527700
H     4.391700    9.940500    6.594000
H     3.178200   10.748200    6.042900
C     3.021000    8.744400    5.656600
H     2.047400    8.634200    5.690100
C     3.897100    7.581200   10.767300
H     3.954200    7.587400   11.736200
H     4.789600    7.658400   10.396600
H     2.163000    8.364800   10.045500
H     3.061200    9.453400   10.702300
C     3.008600    8.678200   10.271400
C     1.353700    9.896100    7.943400
H     1.050400    9.699800    8.832700
H     1.123100    9.170400    7.358100
H     0.935300   10.702900    7.632900
C     3.345700   11.324700    8.592000
H     4.305900   11.326400    8.613200
H     3.006100   11.374800    9.489400
H     3.035800   12.081500    8.089700
C     3.440900    8.972300    4.243500
H     3.026800    8.317900    3.677400
H     4.395500    8.895400    4.176500
H     3.170700    9.851700    3.966800
N     3.437000    9.115200    8.939900
H     3.247500    8.354300    8.496100
H     4.331200    9.215900    8.936700
N     3.676600    7.434500    5.981300
H     4.569400    7.483900    5.880300
C     4.020900    3.707900    8.304600
C     3.465200    3.844800    9.729700
H     2.497800    3.848200    9.663400
H     3.711300    3.040500   10.214500
C     3.868400    5.044300   10.600800
H     4.842100    5.154500   10.567300
C     2.992400    6.207500    5.490100
H     2.935300    6.201300    4.521200
H     2.099800    6.130300    5.860800
H     4.726500    5.423900    6.212000
H     3.828300    4.335200    5.555200
C     3.880800    5.110500    5.986000
C     5.535700    3.892600    8.314000
H     5.839100    4.088900    7.424800
H     5.766400    4.618300    8.899300
H     5.954200    3.085800    8.624600
C     3.543700    2.463900    7.665400
H     2.583500    2.462300    7.644200
H     3.883300    2.413900    6.768000
H     3.853700    1.707200    8.167700
C     3.448500    4.816300   12.013900
H     3.862700    5.470800   12.580000
H     2.493900    4.893200   12.080900
H     3.718800    3.937000   12.290600
N     3.452400    4.673500    7.317500
H     3.641900    5.434400    7.761300
H     2.558200    4.572800    7.320700
N     3.212800    6.354200   10.276100
H     2.320100    6.304800   10.377100
C    15.595500   16.739200   16.834500
C    16.136200   17.990700   17.548100
H    16.397200   18.633000   16.870300
H    16.939800   17.737400   18.029500
C    15.192700   18.701500   18.538000
H    14.863000   18.061400   19.203300
C    13.567000   17.996400   13.822000
H    13.451700   17.185900   13.301800
H    13.752800   18.726700   13.210800
H    15.534200   17.654700   14.252900
H    14.867700   18.700600   15.216900
C    14.702900   17.831500   14.779300
C    16.749400   16.135900   16.030600
H    16.411100   15.447400   15.452700
H    17.395700   15.758300   16.631300
H    17.164600   16.821100   15.503100
C    15.129200   15.709000   17.859400
H    15.088500   14.842700   17.447500
H    14.259000   15.950100   18.183900
H    15.748900   15.684900   18.593600
C    15.902700   19.859900   19.239000
H    16.056100   20.568600   18.608200
H    16.743000   19.555800   19.588600
H    15.353800   20.183900   19.956000
N    14.477700   16.784700   15.825000
H    14.101800   16.009900   15.563200
H    13.868800   17.222200   16.324100
N    14.037000   19.436000   17.918300
H    14.312700   20.091700   17.367800
C    10.764700   20.982500   15.680300
C    10.224000   19.731000   14.966700
H     9.963000   19.088600   15.644500
H     9.420400   19.984200   14.485400
C    11.167500   19.020100   13.976800
H    11.497200   19.660200   13.311600
C    12.793200   19.725300   18.692800
H    12.908500   20.535800   19.213000
H    12.607400   18.995000   19.304000
H    10.826000   20.066900   18.261900
H    11.492500   19.021000   17.297900
C    11.657300   19.890100   17.735500
C     9.610800   21.585700   16.484200
H     9.949100   22.274200   17.062200
H     8.964500   21.963300   15.883500
H     9.195600   20.900500   17.011800
C    11.231000   22.012600   14.655400
H    11.271700   22.879000   15.067400
H    12.101200   21.771500   14.330900
H    10.611300   22.036700   13.921200
C    10.457500   17.861700   13.275800
H    10.304100   17.153000   13.906600
H     9.617200   18.165800   12.926300
H    11.006400   17.537700   12.558800
N    11.882500   20.936900   16.689900
H    12.258400   21.711800   16.951600
H    12.491400   20.499400   16.190800
N    12.323200   18.285600   14.596600
H    12.047500   17.629900   15.147000
O     7.248700   10.223100   10.538200
H     8.077200   10.301300   10.710400
H     6.820100   10.100200   11.261500
O     6.261900    8.852700    8.524700
H     6.578600    9.289200    9.182200
H     6.897500    8.599500    8.019800

QM/MM links (counting starts at zero)
