98
QM: 95 at, MM: 3 at, Links: 0
Sb   -2.239200    0.982000    0.162400
Sb    1.102800    2.818300   -3.053800
Sb    1.041100    1.711900    3.611600
I     0.892600    2.072800    0.260500
I    -2.169700    1.387400   -2.842400
I    -2.124300    0.452100    3.191800
I    -4.799300   -0.183400    0.062800
I    -3.100200    3.670700    0.442800
I     3.706900    3.530400   -2.505300
I     1.539900    2.938700   -5.825800
I     0.024000    5.398000   -2.768800
I     3.665100    2.624900    3.450700
I     1.228700    0.735500    6.251700
I    -0.118700    4.180200    4.281200
I    -0.892600   -2.072800   -0.260500
Sb    2.239200   -0.982000   -0.162400
I     2.124300   -0.452100   -3.191800
I     2.169700   -1.387400    2.842400
Sb   -1.041100   -1.711900   -3.611600
Sb   -1.102800   -2.818300    3.053800
I     4.799300    0.183400   -0.062800
I     3.100200   -3.670700   -0.442800
I    -3.665100   -2.624900   -3.450700
I    -1.228700   -0.735500   -6.251700
I     0.118700   -4.180200   -4.281200
I    -3.706900   -3.530400    2.505300
I    -1.539900   -2.938700    5.825800
I    -0.024000   -5.398000    2.768800
Fe    3.954000    7.800900    4.969200
N     3.560300    6.170400    6.020400
N     2.166600    8.337500    5.609700
N     4.252400    9.527500    4.065200
N     4.827700    8.729800    6.481600
N     3.301100    6.937400    3.303600
N     5.710200    7.137600    4.314900
C     2.398600    6.253900    6.694600
C     1.879000    5.242500    7.526600
C     0.640800    5.467400    8.202300
C    -0.049200    6.622700    8.066000
C     0.421200    7.644300    7.171100
C     1.632900    7.433600    6.498400
C     4.266200    5.068200    6.152100
C     3.814400    3.979000    6.947400
C     2.635000    4.070700    7.644600
C     1.470100    9.458400    5.376800
C     0.264500    9.738900    6.002000
C    -0.265000    8.839200    6.899900
C     4.938600   10.418600    4.849700
C     5.277700   11.702300    4.400700
C     6.071100   12.508000    5.314000
C     6.447600   12.049000    6.513800
C     6.065400   10.763600    6.996400
C     5.274100    9.982600    6.133700
C     3.891800    9.904200    2.843900
C     4.179200   11.219100    2.362800
C     4.872100   12.076200    3.138100
C     5.112900    8.276400    7.713500
C     5.896600    8.976100    8.611500
C     6.374400   10.212400    8.254400
C     4.306800    6.416900    2.566600
C     4.104500    5.789900    1.336200
C     5.251900    5.219600    0.657400
C     6.493300    5.327000    1.170700
C     6.734100    5.979000    2.418000
C     5.624500    6.527600    3.119700
C     2.068500    6.885000    2.802600
C     1.768700    6.258200    1.590500
C     2.773400    5.707500    0.816700
C     6.938900    7.249600    4.845100
C     8.074100    6.783200    4.239800
C     7.997100    6.141800    3.040100
H     0.245300    4.692100    8.842800
H    -0.954600    6.780800    8.634400
H     5.215300    4.989500    5.643400
H     4.411800    3.075200    7.007200
H     2.292500    3.253100    8.271300
H     1.864000   10.175200    4.670400
H    -0.259100   10.659000    5.784400
H    -1.201900    9.051900    7.393300
H     6.363600   13.504600    5.021300
H     7.065600   12.673600    7.142000
H     3.373200    9.203100    2.206500
H     3.843900   11.521800    1.380600
H     5.107000   13.063800    2.768800
H     4.712500    7.320700    8.015400
H     6.128800    8.557500    9.579900
H     6.990100   10.769600    8.945500
H     5.109600    4.704700   -0.280400
H     7.326300    4.908200    0.626700
H     1.266200    7.350300    3.355700
H     0.742400    6.202800    1.258000
H     2.564700    5.240300   -0.134800
H     7.035900    7.737800    5.804300
H     9.034400    6.920900    4.714800
H     8.889400    5.762300    2.566600
N     6.979900    3.066200    5.361500
C     7.394500    2.761600    4.380800
C     7.704500    2.360200    2.943500

QM/MM links (counting starts at zero)
