79
QM: 31 at, MM: 48 at, Links: 0
C     1.215400    6.973400   12.150600
C     1.228700    6.513400   13.465800
H     0.689500    6.910300   14.112400
C     2.052500    5.460900   13.789700
H     2.078000    5.147400   14.665700
C     2.843700    4.866300   12.825200
H     3.395700    4.148100   13.037500
C     2.793200    5.363100   11.547600
C     0.437400    8.140500   11.565800
C     3.586100    4.913800   10.350200
C     1.497200    6.885300    6.421700
C     1.722800    7.064800    5.071300
H     1.205000    6.612000    4.445300
C     2.737800    7.937300    4.651600
H     2.894600    8.079200    3.745300
C     3.509800    8.589900    5.616100
H     4.188100    9.174600    5.366200
C     3.241600    8.346100    6.954300
C     0.480700    5.999200    7.108400
C     3.953400    8.915800    8.172400
Fe    1.971100    7.144400    9.327300
N     2.001100    6.388700   11.244300
N     2.261200    7.524700    7.311000
O     0.676300    8.307700   10.296200
O    -0.291200    8.810500   12.262200
O     3.330000    5.590300    9.266400
O     4.381800    3.979200   10.413300
O     0.511900    6.074600    8.387900
O    -0.288200    5.287200    6.459300
O     3.396500    8.541700    9.296700
O     4.900800    9.653800    8.062000
H     4.875900    5.396800    8.154200
C     5.257400    5.024800    6.388900
H     4.698700    5.635100    5.901200
H     4.771700    4.215400    6.562400
H     6.040300    4.825000    5.870900
O     5.639600    5.613000    7.609400
C    -0.138500    2.639200    8.944000
C     1.226200    2.736800    8.803300
H     1.624100    3.408600    8.297400
C     1.961300    1.783300    9.453600
H     2.888200    1.806700    9.380800
C     1.378500    0.780900   10.220300
H     1.922500    0.163700   10.653500
C     0.018800    0.684200   10.352600
H    -0.378600    0.007600   10.851200
C    -0.734500    1.653000    9.698700
C    -2.323100    2.959900    8.922200
H    -3.158600    3.333300    8.753500
C    -3.166200    1.088000   10.327100
H    -2.989800    0.144000   10.192400
H    -4.020500    1.292000    9.915800
C    -3.252600    1.367600   11.809700
H    -3.442400    2.307900   11.951600
H    -2.399700    1.165700   12.227000
N    -1.184300    3.426900    8.464800
H    -1.093900    4.082800    7.878800
N    -2.105900    1.878300    9.658600
C    -7.467400   -0.754600   15.320800
C    -8.832100   -0.852300   15.461500
H    -9.230000   -1.524000   15.967500
C    -9.567200    0.101200   14.811300
H   -10.494100    0.077800   14.884000
C    -8.984400    1.103700   14.044500
H    -9.528400    1.720900   13.611400
C    -7.624800    1.200400   13.912200
H    -7.227400    1.877000   13.413600
C    -6.871400    0.231600   14.566200
C    -5.282800   -1.075400   15.342700
H    -4.447400   -1.448700   15.511300
C    -4.439700    0.796600   13.937700
H    -4.616100    1.740600   14.072400
H    -3.585400    0.592600   14.349000
C    -4.353300    0.516900   12.455100
H    -4.163500   -0.423300   12.313200
H    -5.206200    0.718900   12.037800
N    -6.421600   -1.542400   15.800000
H    -6.512000   -2.198300   16.386000
N    -5.500000    0.006300   14.606200

QM/MM links (counting starts at zero)
