119
QM: 28 at, MM: 91 at, Links: 8
Fe    4.504200    2.570700   14.037400
P     3.732600    0.579500   14.801300
P     5.123300    4.674900   14.556600
P     4.352100    2.463300   11.757200
Si    2.366500    3.321700   14.596500
N     6.219100    2.002900   13.849300
N     7.290300    1.660000   13.615100
C     2.397200    0.872700   16.036400
C     2.052100    0.007400   17.121900
C     0.963900    0.290900   17.927800
C     0.174400    1.407500   17.707000
C     0.514700    2.265400   16.654600
C     1.654900    2.048700   15.841400
C     2.560000    4.955300   15.585600
C     1.537800    5.634900   16.266400
C     1.760500    6.809700   16.995000
C     3.055900    7.360600   17.006000
C     4.074000    6.728000   16.327100
C     3.844500    5.533400   15.585600
H     2.561000   -0.756000   17.274800
H     0.762900   -0.271300   18.640600
H    -0.569800    1.580800   18.236900
H    -0.014300    3.009200   16.475600
H     0.681400    5.272100   16.248200
H     1.068800    7.219200   17.461000
H     3.215600    8.155500   17.459700
H     4.932800    7.084600   16.351200
H     4.464600    2.612000   15.451300
C     4.947800   -0.501300   15.742000
C     5.937500   -1.270100   14.838600
C     6.891400   -2.158900   15.683100
C     7.614500   -1.317100   16.755800
C     6.618400   -0.607800   17.664700
C     5.703200    0.307000   16.829400
C     2.924500   -0.726600   13.712600
C     2.455400   -2.047500   14.349200
C     1.842700   -3.016800   13.326300
C     0.742700   -2.383000   12.479900
C     1.235800   -1.070800   11.815700
C     1.736200   -0.122600   12.928800
C     0.902400    3.739700   13.438500
C    -0.063400    2.803800   13.059500
C    -1.091500    3.088600   12.157900
C    -1.219300    4.389600   11.661200
C    -0.318200    5.356400   12.056700
C     0.721300    5.039500   12.917800
C     5.511500    5.950600   13.245300
C     4.230300    6.355400   12.461500
C     4.538800    7.233000   11.225100
C     5.365700    8.468500   11.587600
C     6.595700    8.093400   12.415500
C     6.211700    7.277600   13.657400
C     6.609400    4.889700   15.675800
C     6.476800    4.091300   16.982100
C     7.577500    4.496100   17.983000
C     8.969300    4.299200   17.372200
C     9.124800    5.054300   16.029000
C     7.991200    4.621100   15.042900
C     4.746800    0.815800   11.055800
C     5.624600    3.440100   10.842400
C     2.914300    2.909100   10.737500
H     4.426100   -1.185400   16.211700
H     5.454900   -1.815600   14.197800
H     6.466900   -0.608600   14.368000
H     6.363100   -2.834900   16.137400
H     7.549100   -2.590200   15.115500
H     8.214600   -1.872000   17.278900
H     8.124100   -0.620200   16.312200
H     6.074300   -1.298700   18.073500
H     7.081600   -0.109200   18.356300
H     6.260900    0.961100   16.380600
H     5.065600    0.761700   17.401200
H     3.588300   -0.985100   13.040500
H     3.215700   -2.440600   14.807500
H     1.785500   -1.789800   15.000700
H     2.537700   -3.307000   12.714900
H     1.479800   -3.785600   13.792500
H     0.409400   -3.011800   11.822000
H     0.024000   -2.132400   13.082100
H     1.980700   -1.318700   11.245200
H     0.531400   -0.680300   11.274600
H     1.012200    0.040100   13.553700
H     2.025500    0.719000   12.542600
H    -0.010300    1.951200   13.425800
H    -1.701600    2.436200   11.897000
H    -1.886600    4.591200   11.046300
H    -0.426700    6.229000   11.754800
H     1.335100    5.692900   13.166900
H     6.106700    5.518100   12.598600
H     3.757600    5.554100   12.186100
H     3.666100    6.877200   13.052700
H     5.070200    6.693200   10.617800
H     3.709900    7.486700   10.790300
H     5.632600    8.940500   10.783500
H     4.805900    9.045000   12.131100
H     7.179700    7.545900   11.866100
H     7.068900    8.896300   12.687300
H     5.592600    7.816300   14.175000
H     6.999900    7.089500   14.191400
H     6.623400    5.831900   15.946600
H     5.590700    4.257300   17.342500
H     6.559100    3.152200   16.752800
H     7.487800    5.439300   18.190000
H     7.514800    3.977400   18.799200
H     9.648900    4.595300   17.997900
H     9.078400    3.352000   17.198600
H     9.036700    6.003300   16.207300
H     9.997000    4.876200   15.644000
H     8.062900    3.667200   14.880400
H     8.049300    5.097500   14.199600
H     4.857900    0.882400   10.104300
H     5.558100    0.484500   11.448800
H     4.027500    0.211100   11.251600
H     5.379000    4.367200   10.879000
H     6.482500    3.319200   11.253800
H     5.665900    3.156400    9.926000
H     2.219800    2.260400   10.877200
H     2.596500    3.777000   10.998100
H     3.154500    2.923300    9.807700

QM/MM links (counting starts at zero)
  1   28
  1   34
  2   46
  2   52
  3   58
  3   59
  3   60
  4   40
