81
QM: 55 at, MM: 26 at, Links: 2
Fe    6.395400    5.317200    5.772300
N     5.648100    5.367000    7.633300
N     7.929900    4.438800    6.648200
N     6.981200    7.138400    6.300400
N     5.567200    3.537400    5.678100
N     7.187800    5.548700    3.896700
N     4.819400    6.144900    4.793200
N     7.109400    6.660400    1.962900
N     4.061200    7.297800    3.047800
C     6.747400    5.123600    8.631200
H     7.057700    5.990000    8.997100
H     6.397700    4.581100    9.383600
C     7.896800    4.410200    7.992300
C     8.876800    3.805100    8.755600
H     8.816800    3.804200    9.705600
C     9.950900    3.195500    8.117100
H    10.661800    2.816000    8.618700
C     9.962900    3.153400    6.740000
H    10.666200    2.713000    6.275800
C     8.934500    3.763900    6.042800
H     8.933200    3.706600    5.096400
C     5.175100    6.769600    7.844200
H     5.012400    6.937900    8.807900
H     4.333900    6.929000    7.346600
C     6.267000    7.669200    7.329700
C     6.533200    8.904500    7.868000
H     6.013600    9.243700    8.586500
C     7.585700    9.647400    7.333800
H     7.794300   10.505800    7.684800
C     8.317700    9.121100    6.295200
H     9.036100    9.615200    5.917600
C     8.001500    7.869700    5.802400
H     8.518800    7.512600    5.088300
C     4.549500    4.352000    7.737500
H     3.678600    4.784300    7.552000
H     4.523100    3.983200    8.655000
C     4.780600    3.239400    6.752900
C     4.170800    2.002300    6.875300
H     3.655400    1.797400    7.644500
C     4.318500    1.071400    5.871700
H     3.865700    0.237200    5.917600
C     5.136400    1.367700    4.788000
H     5.268000    0.733100    4.094000
C     5.753300    2.594900    4.741300
H     6.335600    2.784700    4.013500
C     8.363900    5.357200    3.185800
H     9.099300    4.835300    3.486100
C     8.317600    6.009700    2.015600
H     8.994500    6.021300    1.348600
C     6.463300    6.353400    3.106100
C     5.123700    6.656000    3.604100
C     3.010000    7.126800    3.925700
H     2.123200    7.449900    3.812200
C     3.471500    6.416100    4.973200
H     2.953800    6.142200    5.720300
C     6.692700    7.510800    0.831300
H     7.440700    7.593100    0.189200
H     6.473600    8.416600    1.163400
C     3.961800    8.081900    1.795000
H     4.635800    8.806000    1.807500
H     3.066000    8.499000    1.739000
C     5.479800    6.926300    0.122000
C     5.656200    6.092100   -0.966900
H     6.534400    5.895100   -1.272100
C     4.566100    5.539800   -1.619500
H     4.694700    4.970500   -2.367000
C     3.287800    5.823500   -1.172200
H     2.539600    5.435900   -1.610200
C     3.090400    6.669400   -0.088600
H     2.208600    6.877100    0.197300
C     4.184400    7.215400    0.579700
Cl    0.079700    1.172300    2.520400
O     0.844700    1.705200    3.584800
O    -1.223800    0.769800    2.999000
O     0.733900    0.056400    1.933900
O    -0.053400    2.179600    1.500700
Cl    1.666000    7.003700    8.886800
O     2.503100    6.213800    9.753100
O     0.330800    7.037300    9.447600
O     1.634200    6.420600    7.579700
O     2.179500    8.346800    8.810700

QM/MM links (counting starts at zero)
  7   55
  8   58
