100
QM: 57 at, MM: 43 at, Links: 2
Fe    4.719300    4.098500    2.707400
N     3.848400    3.752400    0.974500
N     4.575800    2.227800    2.821800
N     5.588200    3.819400    4.463600
N     2.941200    4.589200    3.447900
N     4.847100    5.972700    2.581300
N     6.500200    4.228600    1.852100
C     3.511700    4.654400    0.036700
H     3.744800    5.545500    0.171000
C     2.835700    4.314400   -1.117400
H     2.626400    4.964000   -1.749500
C     2.472800    2.997900   -1.323900
H     2.001300    2.751500   -2.085200
C     2.824000    2.052600   -0.376300
H     2.588500    1.159400   -0.495300
C     3.526200    2.439800    0.748700
C     3.979300    1.542700    1.821700
C     3.858900    0.165600    1.880000
H     3.466700   -0.294300    1.173100
C     4.322700   -0.543200    2.996100
C     4.938200    0.201000    4.012100
H     5.264400   -0.230500    4.768400
C     5.060700    1.574600    3.895600
C     5.703700    2.504700    4.844400
C     6.386700    2.135900    5.983300
H     6.446400    1.241000    6.225300
C     6.985100    3.116300    6.766200
H     7.460200    2.886200    7.531400
C     6.861200    4.439200    6.388700
H     7.249000    5.112900    6.899300
C     6.155900    4.748400    5.246000
H     6.069100    5.641200    5.006600
C     1.947800    3.754200    3.810700
H     2.117900    2.840100    3.824600
C     0.691000    4.198100    4.160300
H     0.025500    3.591800    4.397200
C     0.433900    5.558600    4.155300
H    -0.406100    5.878800    4.396000
C     1.437600    6.436500    3.789100
H     1.278700    7.353800    3.775200
C     2.683100    5.934400    3.443300
C     3.814100    6.748200    2.983400
C     3.884500    8.134200    2.889700
H     3.169000    8.658600    3.169700
C     5.031400    8.733100    2.374100
C     6.076500    7.906200    1.944600
H     6.850600    8.279200    1.587400
C     5.952400    6.534400    2.054800
C     6.915100    5.510700    1.611400
C     8.118100    5.777700    0.983100
H     8.386300    6.655300    0.829800
C     8.915000    4.722200    0.585300
H     9.724300    4.882400    0.154600
C     8.506600    3.430800    0.831100
H     9.034900    2.712500    0.570100
C     7.298500    3.220600    1.469500
H     7.029600    2.347300    1.640600
C     4.167200   -2.016400    3.098700
C     3.324900   -2.711800    2.222100
H     2.862900   -2.244400    1.564600
C     3.168800   -4.087500    2.315800
H     2.629600   -4.538500    1.706400
C     3.818300   -4.789200    3.319100
H     3.696100   -5.708600    3.401500
C     4.647600   -4.120800    4.192000
H     5.083900   -4.591700    4.864700
C     4.835200   -2.751100    4.078000
H     5.414500   -2.318900    4.662000
C     5.143500   10.214100    2.260100
C     4.489400   11.048400    3.163300
H     3.968000   10.683200    3.842300
C     4.622100   12.433400    3.046800
H     4.183500   12.991400    3.648500
C     5.395200   12.983300    2.047200
H     5.482300   13.906200    1.980100
C     6.041800   12.156800    1.144000
H     6.557700   12.527000    0.463700
C     5.920700   10.780700    1.250400
H     6.362200   10.229300    0.643600
P     9.246800   -0.131500    3.054500
F     8.443600   -1.241700    3.855000
F     9.701500   -1.239600    2.020600
F    10.054900    0.972900    2.262600
F     8.779600    0.973300    4.086900
F    10.547700   -0.409500    3.939900
F     7.954800    0.149300    2.170100
P     5.177800    8.332700    6.804000
F     5.848300    7.983500    5.405100
F     3.920300    8.965300    6.050500
F     4.468700    8.699700    8.192600
F     6.382500    7.673600    7.583400
F     4.434600    6.918000    6.784600
F     5.901300    9.754200    6.832700
O    11.130400    1.305500    6.278500
N     5.786200    7.524300   11.333200
C     4.736300    7.807600   11.174900
C     3.366700    8.114000   10.935400
H     3.058600    7.623300   10.169000
H     3.272600    9.055700   10.770700
H     2.844000    7.867900   11.703100

QM/MM links (counting starts at zero)
 19   57
 44   68
