123
QM: 40 at, MM: 83 at, Links: 3
Fe    3.296100    0.376100    2.207700
N     2.773900    0.992500    0.397600
N     1.594300    0.897700    3.062800
N     5.010300   -0.315800    1.531500
N     3.948400    2.242100    2.325400
C     3.711300    2.977100    1.205300
N     2.756200   -1.498400    1.879300
N     3.766200   -0.045900    4.082100
C     6.070500   -2.311300    0.667200
H     5.999900   -3.223000    0.409500
C     4.965900   -1.621600    1.163200
C     3.056900    2.226000    0.147300
H     2.846900    2.624600   -0.689200
C     6.181400    0.318800    1.434300
H     6.231100    1.228600    1.703100
C     4.652300    4.947900    2.174800
H     4.891100    5.866400    2.131700
C     4.901000   -0.566900    4.575700
H     5.622100   -0.738400    3.981200
C     4.902400    4.207500    3.315000
H     5.325600    4.612000    4.063200
C     4.022200   -0.624700    6.804900
H     4.113900   -0.826200    7.728800
C     3.673400   -2.242700    1.363700
H     3.511100   -3.148700    1.128500
C     7.333300   -0.299900    0.954700
H     8.148700    0.184000    0.897700
C     4.531900    2.865900    3.361900
H     4.699000    2.372500    4.156700
C     1.557500    0.719400    4.333100
H     0.782400    0.928600    4.841700
C     2.839200   -0.081200    6.311000
H     2.110300    0.101600    6.891200
C     7.276500   -1.633600    0.559400
H     8.049100   -2.071600    0.222200
C     2.750000    0.184600    4.955300
C     5.060600   -0.865200    5.926500
H     5.878100   -1.231400    6.241800
C     4.043900    4.322400    1.092100
H     3.858900    4.803100    0.293800
C     0.424500    1.520100    2.392900
H     0.371800    1.137500    1.470500
C     4.415700   -0.101500   -1.792900
H     4.648600    0.777600   -1.517200
C     0.651700    3.019900    2.248300
C     1.419600   -2.482600    3.696600
C     1.380400    5.174200    3.085500
H     1.771600    5.694000    3.778000
C     3.185300   -0.638100   -1.427800
C     1.449400   -2.115300    2.219500
H     0.739500   -1.428500    2.063200
C    -0.918000    1.249400    3.072500
H    -1.633000    1.692600    2.570700
H    -1.083500    0.283800    3.094400
H    -0.895900    1.598100    3.988000
C     2.142900    0.162000   -0.665500
H     1.539800   -0.493800   -0.210800
C     2.518800   -3.054900    4.328000
H     3.324400   -3.190000    3.843600
C     0.977500    5.781700    1.907100
H     1.098100    6.716600    1.785000
C     1.211400    3.798300    3.255800
H     1.481500    3.389000    4.069400
C     3.737000   -2.653500   -2.635900
H     3.493200   -3.522900   -2.930300
C     1.280400    0.966700   -1.648600
H     0.897400    0.362900   -2.317900
H     0.558100    1.413700   -1.159600
H     1.836500    1.639400   -2.095400
C     0.156800   -2.720600    5.742000
H    -0.657800   -2.620000    6.221400
C     0.397500    5.019600    0.911000
H     0.104400    5.434400    0.107900
C     0.238000   -2.331800    4.411700
H    -0.524400   -1.956600    3.985200
C     1.092400   -3.348500    1.391000
H     0.220100   -3.692600    1.676500
H     1.052500   -3.104800    0.442600
H     1.774800   -4.039300    1.522400
C     1.273600   -3.261000    6.367100
H     1.228400   -3.513600    7.281600
C     0.243400    3.651500    1.079500
H    -0.148800    3.137500    0.383900
C     2.444400   -3.428100    5.665100
H     3.204900   -3.801900    6.095300
C     5.308000   -0.846500   -2.561900
H     6.149100   -0.474600   -2.799600
C     2.856800   -1.919400   -1.868400
H     2.014700   -2.292600   -1.636300
C     4.980800   -2.128700   -2.983500
H     5.593500   -2.638300   -3.499800
P     1.966500    4.870000   -3.318900
F     0.979300    4.244200   -2.228200
F     2.949800    5.516600   -4.402000
F     2.534900    5.876900   -2.214200
F     1.394700    3.861800   -4.423800
F     3.089600    3.803300   -2.931500
F     0.835100    5.942100   -3.713300
P    -2.066000   -1.299400   -0.756700
F    -1.718300   -0.439800   -2.056300
F    -0.700300   -2.080300   -1.006000
F    -2.796000   -2.358300   -1.653100
F    -1.206000   -0.310800    0.105000
F    -3.376000   -0.540400   -0.575600
F    -2.367400   -2.258300    0.470100
N    -6.082700   -0.776200   -5.265600
C    -3.580100   -0.940200   -4.652800
H    -3.079000   -1.274900   -5.426100
H    -3.459400   -1.549500   -3.896100
H    -3.252100   -0.048900   -4.412200
C    -4.991600   -0.860500   -4.990200
C     0.035200   -3.612400   -4.319100
C     0.086500   -2.283300   -4.788200
H    -0.436500   -1.707200   -4.192000
H    -0.287500   -2.242300   -5.692800
H     1.017000   -1.978500   -4.804100
N     0.039200   -4.694700   -3.937000
C    -3.154200    1.822600   -7.254900
C    -2.828400    1.166700   -8.468900
H    -3.502500    1.379800   -9.146200
H    -2.809300    0.197400   -8.320200
H    -1.948000    1.466800   -8.776000
N    -3.413800    2.353600   -6.287600

QM/MM links (counting starts at zero)
  1   55
  2   40
  6   49
