85
QM: 13 at, MM: 72 at, Links: 0
Fe   -1.293300   13.310500   15.498600
O     1.282400   14.068100   14.716600
N    -2.740600   15.948400   14.788900
N     0.231900   13.789300   15.040000
N    -1.989200   12.278200   12.682600
N    -1.017700   14.255700   18.424300
N    -0.392400   10.468000   16.279800
N    -4.071400   12.250000   16.360900
C    -2.194300   14.977500   15.059300
C    -1.741000   12.650200   13.739400
C    -1.121700   13.903500   17.336000
C    -0.721700   11.526900   15.996300
C    -3.041700   12.659600   16.025500
N     3.505900    8.307400    9.063400
N     4.203100    8.584900   11.684800
H     4.399600    9.170500   11.058000
C     3.120500    7.332100    9.921300
C     2.439700    6.218100    9.548900
H     2.193200    5.561700   10.189800
C     2.123100    6.065700    8.247000
H     1.632200    5.301100    7.969700
C     2.500600    7.002600    7.317300
H     2.297300    6.882900    6.397100
C     3.183800    8.129400    7.749300
H     3.434500    8.791200    7.116100
C     3.491500    7.499300   11.345400
C     4.629100    8.820100   12.938200
H     5.118600    9.610900   13.131100
C     4.359700    7.923900   13.937700
H     4.689800    8.063000   14.817700
C     3.596100    6.810900   13.635600
H     3.369800    6.193400   14.321200
C     3.163500    6.593400   12.353400
H     2.640600    5.826200   12.151700
N    -0.357900    7.295900   19.944100
C     0.190100    8.020400   20.974200
C     0.278600    7.509700   22.219300
H     0.632000    8.025800   22.934400
C    -0.152900    6.231100   22.423800
H    -0.096900    5.862500   23.297300
C    -0.667000    5.460700   21.407400
H    -0.938300    4.564100   21.565600
C    -0.776400    6.012700   20.174100
H    -1.147000    5.504300   19.462300
N     1.224500   10.119200   21.752500
C     0.676500    9.394700   20.722400
C     0.588000    9.905400   19.477300
H     0.234600    9.389300   18.762200
C     1.019400   11.184000   19.272800
H     0.963500   11.552600   18.399300
C     1.533600   11.954400   20.289100
H     1.804800   12.851000   20.131000
C     1.643000   11.402400   21.522500
H     2.013500   11.910800   22.234300
O    -1.539100    8.023100   17.228000
H    -0.983900    8.690100   16.887100
H    -2.398900    8.324400   17.262400
O     3.258600    9.401700   17.074100
H     3.133600   10.224400   16.678600
H     2.528600    8.846900   17.033100
N     1.778000    1.403000   11.550400
H     2.109600    1.054400   12.287400
C     1.777900    0.687500   10.411000
C     1.259100    2.683700   11.566400
H     1.247500    3.185200   12.373300
C     0.764300    3.222100   10.416000
H     0.402600    4.100500   10.409800
C     0.799300    2.464400    9.254300
H     0.461500    2.834900    8.447300
C     1.304400    1.206900    9.246200
H     1.327900    0.698700    8.443800
N     2.322400   -1.403000    9.297900
H     1.990700   -1.054400    8.560900
C     2.322500   -0.687500   10.437300
C     2.841200   -2.683700    9.281900
H     2.852900   -3.185200    8.475000
C     3.336100   -3.222100   10.432300
H     3.697700   -4.100500   10.438500
C     3.301100   -2.464400   11.593900
H     3.638900   -2.834900   12.401000
C     2.796000   -1.206900   11.602100
H     2.772400   -0.698700   12.404500
O     5.177300   10.701900   10.387500
H     5.244300   11.323300   11.062100
H     4.836000   11.095200    9.627700

QM/MM links (counting starts at zero)
