110
QM: 10 at, MM: 100 at, Links: 3
C     1.372400    2.377000    2.786300
Fe    0.000000    0.000000    2.786300
S     0.359600    1.877200    4.024800
S     1.445900    1.250000    1.547700
C    -2.744700    0.000000    2.786300
S    -1.805500   -0.627200    4.024800
S    -1.805500    0.627200    1.547700
C     1.372400   -2.377000    2.786300
S     1.445900   -1.250000    4.024800
S     0.359600   -1.877200    1.547700
C     2.112900    3.659700    2.786300
C     4.207200    2.449700    3.157400
H     3.597200    1.823800    3.598700
H     4.863900    2.744400    3.823800
C     4.922900    1.732300    2.068500
H     4.277900    1.301600    1.487900
H     5.509600    1.063300    2.454100
H     5.447500    2.366200    1.554700
C     4.260100    4.692100    2.122000
H     5.194900    4.400000    2.081900
H     4.215800    5.482200    2.699300
C     3.796900    5.058200    0.746700
H     3.761200    4.261400    0.195000
H     4.417000    5.693500    0.355500
H     2.914100    5.456600    0.798000
N     3.440200    3.616600    2.704900
C     0.017900    4.868400    2.415100
H    -0.219100    4.027200    1.973800
H    -0.055200    5.584500    1.748700
C    -0.961300    5.129500    3.504000
H    -1.011800    4.355600    4.084600
H    -1.834000    5.303100    3.118400
H    -0.674500    5.900800    4.017800
C     1.933400    6.035400    3.450500
H     1.213100    6.698900    3.490600
H     2.639800    6.392000    2.873200
C     2.482100    5.817300    4.825800
H     1.809900    5.387900    5.377500
H     2.722200    6.672000    5.217000
H     3.268500    5.252000    4.774500
N     1.412000    4.787600    2.867600
C    -4.225900    0.000000    2.786300
C    -4.225100    2.418700    3.157400
H    -3.378100    2.203400    3.598700
H    -4.808700    2.840000    3.823800
C    -3.961700    3.397200    2.068500
H    -3.266200    3.054000    1.487900
H    -3.675700    4.239800    2.454100
H    -4.772900    3.534500    1.554700
C    -6.193500    1.343300    2.122000
H    -6.408000    2.298900    2.081900
H    -6.855600    0.909900    2.699300
C    -6.279000    0.759100    0.746700
H    -5.571000    1.126600    0.195000
H    -7.139200    0.978500    0.355500
H    -6.182600   -0.204600    0.798000
N    -4.852200    1.171000    2.704900
C    -4.225100   -2.418700    2.415100
H    -3.378100   -2.203400    1.973800
H    -4.808700   -2.840000    1.748700
C    -3.961700   -3.397200    3.504000
H    -3.266200   -3.054000    4.084600
H    -3.675700   -4.239800    3.118400
H    -4.772900   -3.534500    4.017800
C    -6.193500   -1.343300    3.450500
H    -6.408000   -2.298900    3.490600
H    -6.855600   -0.909900    2.873200
C    -6.279000   -0.759100    4.825800
H    -5.571000   -1.126600    5.377500
H    -7.139200   -0.978500    5.217000
H    -6.182600    0.204600    4.774500
N    -4.852200   -1.171000    2.867600
C     2.112900   -3.659700    2.786300
C     0.017900   -4.868400    3.157400
H    -0.219100   -4.027200    3.598700
H    -0.055200   -5.584500    3.823800
C    -0.961300   -5.129500    2.068500
H    -1.011800   -4.355600    1.487900
H    -1.834000   -5.303100    2.454100
H    -0.674500   -5.900800    1.554700
C     1.933400   -6.035400    2.122000
H     1.213100   -6.698900    2.081900
H     2.639800   -6.392000    2.699300
C     2.482100   -5.817300    0.746700
H     1.809900   -5.387900    0.195000
H     2.722200   -6.672000    0.355500
H     3.268500   -5.252000    0.798000
N     1.412000   -4.787600    2.704900
C     4.207200   -2.449700    2.415100
H     3.597200   -1.823800    1.973800
H     4.863900   -2.744400    1.748700
C     4.922900   -1.732300    3.504000
H     4.277900   -1.301600    4.084600
H     5.509600   -1.063300    3.118400
H     5.447500   -2.366200    4.017800
C     4.260100   -4.692100    3.450500
H     5.194900   -4.400000    3.490600
H     4.215800   -5.482200    2.873200
C     3.796900   -5.058200    4.825800
H     3.761200   -4.261400    5.377500
H     4.417000   -5.693500    5.217000
H     2.914100   -5.456600    4.774500
N     3.440200   -3.616600    2.867600
F     7.329600    3.278800    3.833900
F     8.633600    3.488800    5.564700
P     7.771800    4.486100    4.743400
F     9.037700    4.708200    3.833900
F     8.203800    5.732500    5.564700
F     6.945700    5.472700    3.833900
F     6.475600    4.238500    5.564700

QM/MM links (counting starts at zero)
  0   10
  4   41
  7   72
