121
QM: 71 at, MM: 50 at, Links: 6
Fe    2.721100    5.930400    7.428000
O     0.700400    5.694700    6.955300
N     3.077000    3.899000    6.847300
N     2.901800    2.105200    5.536500
N     3.138500    6.358300    5.353900
N     2.830700    6.087600    3.158400
N    -1.207200    4.566100    6.653700
H    -1.662000    4.103800    6.113200
C     1.934300    4.266400    4.645600
H     2.011900    3.752700    3.791200
C     2.630000    3.428300    5.697900
C     3.725600    2.836200    7.464500
C     4.444400    2.786100    8.666200
H     4.518500    3.545200    9.231500
C     5.042000    1.582800    8.992800
H     5.541100    1.519400    9.799000
C     4.932800    0.452500    8.166600
H     5.362700   -0.354600    8.424800
C     4.212300    0.487100    6.983600
H     4.126600   -0.278700    6.428200
C     3.621200    1.703700    6.649700
C     2.653300    5.575100    4.408400
C     3.674600    7.459700    4.690200
C     4.320700    8.592700    5.184400
H     4.480500    8.704600    6.114700
C     4.720200    9.550900    4.263500
H     5.167200   10.330700    4.571200
C     4.480300    9.398400    2.891700
H     4.758200   10.082800    2.293800
C     3.853200    8.282200    2.389600
H     3.691500    8.179100    1.458900
C     3.462600    7.303500    3.312600
C     0.414700    4.458900    4.887800
H     0.075700    5.098900    4.213100
H    -0.033300    3.592600    4.721200
C    -0.005600    4.949100    6.249500
O     4.741800    6.166000    7.900700
N     2.365100    7.961700    8.008700
N     2.540400    9.755500    9.319400
N     2.303700    5.502400    9.502000
N     2.611500    5.773100   11.697600
N     6.649300    7.294600    8.202300
H     7.104200    7.756900    8.742700
C     3.507900    7.594300   10.210300
H     3.430300    8.108000   11.064700
C     2.812100    8.432400    9.158100
C     1.716500    9.024500    7.391400
C     0.997700    9.074600    6.189700
H     0.923700    8.315500    5.624500
C     0.400200   10.277900    5.863200
H    -0.099000   10.341300    5.057000
C     0.509300   11.408200    6.689300
H     0.079400   12.215300    6.431100
C     1.229800   11.373600    7.872300
H     1.315600   12.139400    8.427800
C     1.820900   10.157000    8.206300
C     2.788900    6.285600   10.447600
C     1.767600    4.401000   10.165800
C     1.121500    3.268000    9.671500
H     0.961600    3.156100    8.741200
C     0.722000    2.309800   10.592400
H     0.275000    1.530000   10.284800
C     0.961800    2.462300   11.964200
H     0.683900    1.777900   12.562200
C     1.588900    3.578500   12.466400
H     1.750600    3.681600   13.397100
C     1.979600    4.557200   11.543400
C     5.027400    7.401800    9.968200
H     5.366500    6.761800   10.642800
H     5.475400    8.268100   10.134700
C     5.447700    6.911600    8.606500
C     2.672700    1.267200    4.364700
H     1.901300    1.608300    3.865500
H     2.494700    0.346300    4.651400
H     3.467600    1.283300    3.791200
C     2.417500    5.519400    1.878400
H     2.516400    4.545000    1.906000
H     2.978200    5.884100    1.163200
H     1.480500    5.747700    1.706900
C    -1.818200    5.009800    7.905300
H    -1.102200    5.202100    8.561500
H    -2.374000    4.275800    8.270300
C    -2.674600    6.235200    7.744600
H    -3.355600    6.066700    7.046200
H    -2.108600    6.989500    7.441300
C    -3.375000    6.623000    9.043600
H    -3.938000    5.881700    9.344400
H    -3.930300    7.415300    8.891300
H    -2.703800    6.822300    9.729200
C     2.769400   10.593500   10.491300
H     3.540800   10.252400   10.990400
H     2.947400   11.514400   10.204600
H     1.974500   10.577400   11.064700
C     3.024700    6.341300   12.977600
H     2.925700    7.315700   12.949900
H     2.464000    5.976600   13.692700
H     3.961700    6.113000   13.149000
C     7.260300    6.850900    6.950700
H     6.544300    6.658600    6.294500
H     7.816200    7.584900    6.585600
C     8.116800    5.625500    7.111400
H     8.797800    5.794000    7.809800
H     7.550700    4.871200    7.414600
C     8.817200    5.237700    5.812400
H     9.380200    5.979000    5.511600
H     9.372400    4.445400    5.964700
H     8.145900    5.038400    5.126800
S    -3.439000    1.838400    5.155200
F    -2.593000    1.309400    2.757000
F    -1.061900    1.245400    4.259900
F    -2.492800   -0.350200    4.105400
O    -3.110900    3.223400    4.946300
O    -3.062700    1.334200    6.419400
O    -4.743100    1.466900    4.679000
C    -2.346800    0.967800    4.006900
N    -4.321200    3.129300    9.472700
C    -5.140700    2.667700    8.839000
C    -6.187700    2.057800    8.027600
H    -6.073500    2.325900    7.092200
H    -7.063400    2.355500    8.347600
H    -6.129000    1.081700    8.098000

QM/MM links (counting starts at zero)
  3   71
  5   75
  6   79
 38   89
 40   93
 41   97
