75
QM: 53 at, MM: 22 at, Links: 2
Fe   11.900500    8.208800    8.732800
N    10.339200    9.200100    8.043400
N    12.681900    9.626500    9.691100
N    13.046100    6.691300    9.147600
N     9.868800    7.064700    7.146200
N    10.988700    6.830300    7.814700
N    13.621700   10.118800    7.675500
N    12.972700    9.029300    7.337300
N    12.396400    9.846700   10.963700
N    12.643200    5.530000    8.692500
N    11.027200    7.977500   10.492600
C    14.323200   11.584100    9.480800
C    13.515900   10.442700    8.984600
C    10.030800   10.500400    8.201200
H    10.596100   11.046800    8.735000
C     8.915700   11.067000    7.610400
H     8.719700   11.988500    7.729900
C     9.532000    8.401500    7.282300
C     9.629800    7.019900   12.173700
H     8.987900    6.365600   12.424400
C    11.118200    4.340300    7.256200
C    10.113900    7.070600   10.884300
H     9.792800    6.441500   10.249000
C    10.102500    7.955100   13.108900
H     9.788600    7.937300   14.004500
C    11.529000    5.593600    7.923700
C    11.028500    8.899800   12.715500
H    11.353800    9.541600   13.335200
C    15.167700   12.254200    8.566800
H    15.200900   11.967200    7.662200
C    14.334600   12.009300   10.815800
H    13.802800   11.557300   11.460500
C    11.696900    3.135400    7.687100
H    12.295000    3.136100    8.424900
C    15.948500   13.326100    8.976400
H    16.503900   13.771900    8.347500
C    11.481700    8.898600   11.395200
C    11.396900    1.934000    7.035900
H    11.792200    1.122600    7.332800
C    15.122000   13.088200   11.202600
H    15.110000   13.374200   12.108900
C    10.234600    4.319100    6.169300
H     9.834400    5.125100    5.866000
C    15.920800   13.750100   10.291900
H    16.448900   14.490800   10.566800
C     8.085900   10.264900    6.836800
H     7.315200   10.636200    6.424000
C    10.519900    1.924600    5.957100
H    10.317200    1.108900    5.514900
C     8.381000    8.928000    6.670300
H     7.814500    8.371200    6.148900
C     9.944400    3.103600    5.531100
H     9.343600    3.092900    4.794800
C    12.957100    7.440400    5.491900
H    12.857800    6.733300    6.118500
C    13.014100    8.760800    5.940800
C    16.178400    7.522900   10.939800
H    16.807100    8.234100   10.984600
C    14.155300    6.587700   10.027500
C    13.045100    7.151800    4.137300
H    13.014700    6.249700    3.842400
C    13.221200    9.492200    3.651000
H    13.313100   10.193600    3.016900
C    13.131500    9.800800    4.997400
H    13.148400   10.707200    5.283400
C    16.375700    6.393300   11.702000
H    17.132100    6.328700   12.274000
C    13.178800    8.175400    3.213600
H    13.242100    7.978300    2.285900
C    15.074700    7.635900   10.110700
H    14.943800    8.424800    9.598500
C    14.360700    5.428700   10.794600
H    13.745900    4.705900   10.740200
C    15.462700    5.345000   11.628600
H    15.597100    4.565700   12.156200

QM/MM links (counting starts at zero)
  3   58
  7   55
