104
QM: 61 at, MM: 43 at, Links: 0
Fe    3.012200    9.806300    7.946000
O     1.451300    9.895800    9.375100
H     1.590100   10.148100   10.186700
H     0.858100    9.355800    9.322200
O     4.580300    9.860800    9.397200
H     5.179100    9.296500    9.342800
H     4.762700   10.404200   10.013500
N     3.013000    7.612500    8.096400
N     4.164400   -1.618700    6.718900
C     2.965900    6.894900    6.963800
H     2.831800    7.350600    6.164500
C     3.103600    5.534100    6.913100
H     3.055200    5.091700    6.096100
C     3.314900    4.812600    8.080100
C     3.335600    5.549600    9.262800
H     3.451500    5.119000   10.078600
C     3.182400    6.918500    9.219800
H     3.199000    7.385700   10.024600
C     3.525200    3.362100    8.098500
H     3.626900    2.947800    8.924900
C     3.579800    2.605200    7.018800
H     3.467700    3.039800    6.204200
C     3.797400    1.159500    6.959500
C     4.037600    0.355800    8.069700
H     4.080000    0.731800    8.918500
C     4.210500   -0.992000    7.904200
H     4.370100   -1.506700    8.662700
C     3.949200   -0.842900    5.660900
H     3.920100   -1.245700    4.823200
C     3.767200    0.519500    5.728100
H     3.624800    1.010300    4.950300
O     4.573100    9.716900    6.516800
H     4.434300    9.464600    5.705200
H     5.166300   10.256800    6.569700
O     1.444100    9.751800    6.494700
H     0.845200   10.316100    6.549100
H     1.261700    9.208400    5.878400
N     3.011400   12.000200    7.795500
N     1.860000   21.231300    9.173000
C     3.058500   12.717700    8.928100
H     3.192600   12.262100    9.727400
C     2.920700   14.078600    8.978800
H     2.969200   14.520900    9.795800
C     2.709400   14.800000    7.811800
C     2.688800   14.063100    6.629100
H     2.572900   14.493600    5.813300
C     2.842000   12.694200    6.672100
H     2.825400   12.226900    5.867300
C     2.499200   16.250500    7.793400
H     2.397500   16.664800    6.967000
C     2.444600   17.007400    8.873100
H     2.556600   16.572900    9.687700
C     2.227000   18.453100    8.932400
C     1.986800   19.256900    7.822200
H     1.944400   18.880800    6.973400
C     1.813900   20.604600    7.987700
H     1.654300   21.119300    7.229200
C     2.075200   20.455500   10.231000
H     2.104200   20.858300   11.068700
C     2.257200   19.093100   10.163800
H     2.399600   18.602300   10.941600
O     6.862900   18.550800   14.566200
N     9.611300   16.202500   14.859400
N     7.668800   15.375200   11.085200
N     3.982500   19.856800   13.261800
N     4.328200   15.926300   11.576900
C     6.688300   17.666300   13.571400
C     5.436000   17.767300   12.959500
C     4.640100   18.923800   13.154400
C     4.841900   16.733600   12.191300
C     7.682800   16.733400   13.266700
C     7.660500   15.985700   12.057500
C     8.752500   16.449500   14.150900
C     8.104100   19.291300   14.706400
H     8.501700   19.100700   15.570900
H     8.728600   19.014300   14.018200
C     7.850400   20.703300   14.590400
H     7.464200   20.889100   13.730600
H     8.674600   21.184000   14.680900
H     7.241100   20.975500   15.280100
N     5.262600   11.376600   11.594900
N     7.825900   15.076600   19.853100
C     5.546900   10.545200   12.584500
H     5.486200    9.633400   12.413200
C     5.928000   10.933600   13.855700
H     6.114300   10.298300   14.507700
C     6.027300   12.282000   14.139200
C     5.710500   13.163200   13.121300
H     5.741400   14.080100   13.271300
C     5.347800   12.677700   11.881400
H     5.151600   13.290800   11.210100
C     6.453900   12.700900   15.483600
H     6.601700   12.021700   16.101700
C     7.554800   15.967600   18.902000
H     7.612400   16.869800   19.118000
C     7.195400   15.629600   17.621100
H     7.032800   16.295600   16.993200
C     7.074800   14.299000   17.265300
C     7.380600   13.363600   18.247900
H     7.337100   12.454000   18.058000
C     7.750300   13.791300   19.509900
H     7.957100   13.150600   20.150900
C     6.648800   13.918600   15.906200
H     6.506500   14.608200   15.297500

QM/MM links (counting starts at zero)
