343
QM: 13 at, MM: 330 at, Links: 6
Fe   13.538500   10.423600   22.353400
C    13.315100   10.253900   24.240900
N    13.158900   10.271000   25.400200
C    13.666100   10.792600   20.469200
N    13.711800   11.099200   19.369900
C    15.445900   10.415800   22.496300
N    16.606100   10.315700   22.510000
C    13.471300   12.312800   22.616500
N    13.422200   13.466800   22.775900
C    11.635400   10.283700   22.286800
N    10.464600   10.209200   22.160800
C    13.576600    8.578300   22.103200
N    13.687200    7.426400   21.944900
B    13.015000   10.498800   26.937100
C    13.179900    9.029700   27.631700
C    13.648600    8.795500   28.891500
H    13.896100    9.540700   29.424200
C    13.778500    7.524400   29.431400
H    14.161100    7.413700   30.295200
C    13.353700    6.417200   28.718700
H    13.422200    5.546400   29.093100
C    12.823600    6.600300   27.455400
H    12.521700    5.859400   26.944300
C    12.746400    7.903400   26.947900
H    12.372500    8.022600   26.084100
C    11.517800   11.092800   27.228600
C    11.175500   11.537800   28.502800
H    11.802100   11.422800   29.208200
C     9.953900   12.151000   28.787100
H     9.766000   12.453300   29.668900
C     9.023600   12.314900   27.790100
H     8.188100   12.725900   27.970100
C     9.325500   11.874200   26.526800
H     8.688300   11.980700   25.828500
C    10.550600   11.275900   26.249600
H    10.731400   10.982100   25.364200
C    14.101400   11.629400   27.347400
C    14.452500   11.978500   28.653900
H    14.133000   11.435600   29.366600
C    15.249400   13.090000   28.974300
H    15.444200   13.281600   29.884900
C    15.747800   13.892600   27.998900
H    16.316500   14.622900   28.211200
C    15.402100   13.618000   26.706700
H    15.698700   14.192800   26.008500
C    14.621000   12.500200   26.390000
H    14.433200   12.325600   25.475800
B    13.650300   11.795400   17.956900
C    14.192700   10.745800   16.837500
C    13.717000   10.756400   15.509300
H    12.950000   11.275900   15.297000
C    14.338400   10.030400   14.512300
H    14.003100   10.073000   13.623300
C    15.405600    9.268100   14.775100
H    15.802200    8.755000   14.080400
C    15.939200    9.225600   16.060000
H    16.711400    8.706100   16.247200
C    15.323100    9.953700   17.064200
H    15.682900    9.913300   17.942500
C    12.109300   12.274500   17.730100
C    11.814400   13.200700   16.715100
H    12.525200   13.558400   16.196800
C    10.522500   13.609500   16.456000
H    10.359300   14.229000   15.754100
C     9.469400   13.128300   17.193800
H     8.579500   13.402900   17.003000
C     9.736200   12.223400   18.234000
H     9.027100   11.887000   18.770300
C    11.043800   11.825200   18.468000
H    11.210600   11.212100   19.177000
C    14.675400   13.049500   18.000000
C    15.321300   13.520000   16.848300
H    15.156300   13.081400   16.024000
C    16.190100   14.597400   16.866300
H    16.604400   14.876300   16.056400
C    16.469200   15.278700   18.046800
H    17.067800   16.015400   18.061200
C    15.842600   14.844400   19.180600
H    16.019900   15.287200   20.001300
C    14.956200   13.777700   19.173400
H    14.524400   13.528600   19.983300
B    18.175300   10.311400   22.409200
C    18.535100   10.549900   20.832700
C    19.676000   10.009100   20.238800
H    20.267500    9.483200   20.764300
C    19.970900   10.222000   18.885500
H    20.755500    9.843000   18.507500
C    19.128400   10.977800   18.100800
H    19.326700   11.122600   17.183000
C    18.017300   11.505900   18.658700
H    17.422300   12.014700   18.118800
C    17.731200   11.318500   20.015700
H    16.960700   11.733700   20.382800
C    18.719400    8.848700   22.923900
C    20.037600    8.708200   23.384600
H    20.613300    9.464000   23.391800
C    20.523800    7.456200   23.834500
H    21.411900    7.386000   24.165600
C    19.726900    6.344800   23.794900
H    20.069200    5.506000   24.075700
C    18.412300    6.447000   23.345000
H    17.840100    5.689100   23.348600
C    17.947100    7.703200   22.884300
H    17.066000    7.760700   22.531600
C    18.715900   11.488800   23.395400
C    20.007800   12.019000   23.237000
H    20.537800   11.733700   22.502800
C    20.529100   12.949400   24.126000
H    21.406700   13.288000   23.985700
C    19.807700   13.392300   25.202200
H    20.171000   14.026800   25.810500
C    18.526300   12.883400   25.382200
H    18.003300   13.166600   26.120000
C    18.013800   11.967900   24.482400
H    17.130900   11.648500   24.622700
B    13.459000   15.010400   22.974300
C    15.000100   15.500100   22.736700
C    15.337100   16.807400   22.351600
H    14.633300   17.422800   22.175200
C    16.641200   17.246000   22.214800
H    16.822000   18.136000   21.941300
C    17.685600   16.373100   22.481200
H    18.586000   16.671200   22.416400
C    17.404800   15.067900   22.837500
H    18.112100   14.452600   22.988700
C    16.091900   14.659100   22.967100
H    15.921600   13.760600   23.226200
C    12.978100   15.306400   24.511200
C    13.390600   16.458300   25.195000
H    13.966300   17.077800   24.759500
C    12.974600   16.715900   26.498000
H    13.266000   17.507900   26.933500
C    12.163700   15.857800   27.156600
H    11.903900   16.030300   28.052900
C    11.710800   14.708100   26.487200
H    11.131600   14.097000   26.922700
C    12.119800   14.476000   25.180600
H    11.789800   13.705300   24.730700
C    12.423400   15.687500   21.916100
C    12.079400   17.041600   22.002500
H    12.412900   17.559000   22.725900
C    11.259700   17.657000   21.055800
H    11.068400   18.583100   21.127800
C    10.724400   16.928800   20.012100
H    10.166200   17.350400   19.371400
C    11.008700   15.585300   19.911300
H    10.627900   15.070100   19.209400
C    11.854800   14.982800   20.836300
H    12.058400   14.058700   20.735500
B     8.928800    9.923900   22.348000
C     8.277600   11.220600   23.053500
C     7.094600   11.112000   23.787700
H     6.712000   10.251800   23.920900
C     6.457500   12.219100   24.334800
H     5.671100   12.110500   24.853100
C     6.971700   13.471100   24.111600
H     6.508400   14.235400   24.432000
C     8.160000   13.624400   23.431400
H     8.528600   14.488800   23.298200
C     8.821700   12.483100   22.934700
H     9.662500   12.587500   22.506400
C     8.214400    9.715300   20.893900
C     6.850600    9.930300   20.681500
H     6.320500   10.249700   21.401400
C     6.234500    9.687600   19.439800
H     5.302500    9.836600   19.328200
C     6.985800    9.238300   18.399600
H     6.589100    9.127600   17.542900
C     8.307500    8.944500   18.572300
H     8.823500    8.580400   17.863300
C     8.886700    9.195800   19.824900
H     9.808200    8.989200   19.936500
C     8.753300    8.542100   23.190200
C     7.563200    7.818200   23.186600
H     6.829600    8.169500   22.693500
C     7.384200    6.615200   23.859700
H     6.554000    6.155300   23.812900
C     8.432100    6.100000   24.597500
H     8.333800    5.276000   25.061900
C     9.620400    6.792000   24.651500
H    10.345300    6.444900   25.159000
C     9.771300    7.997000   23.964100
H    10.598000    8.459100   24.028900
B    13.903100    5.940300   21.563300
C    12.405900    5.282400   21.387000
C    11.249200    6.076600   21.343800
H    11.333500    7.021900   21.379800
C     9.974900    5.506000   21.246600
H     9.207900    6.065900   21.207000
C     9.831000    4.136900   21.203400
H     8.963900    3.753700   21.145800
C    10.928000    3.336400   21.246600
H    10.829700    2.393200   21.210600
C    12.211100    3.911200   21.351000
H    12.967600    3.338500   21.401400
C    14.870200    5.950900   20.253200
C    14.994800    4.854400   19.403800
H    14.436700    4.100700   19.544100
C    15.911100    4.828900   18.356400
H    16.011100    4.034700   17.845300
C    16.672800    5.927500   18.046800
H    17.264300    5.912600   17.301800
C    16.558700    7.038900   18.827900
H    17.087100    7.805400   18.644300
C    15.663600    7.049600   19.904100
H    15.589900    7.841600   20.422400
C    14.649100    5.205700   22.823100
C    15.370500    4.039000   22.643100
H    15.463500    3.677000   21.768500
C    15.974300    3.372600   23.733700
H    16.495600    2.591200   23.596900
C    15.788200    3.881400   25.007900
H    16.153300    3.419400   25.756500
C    15.087900    5.039700   25.202200
H    14.987800    5.393100   26.080500
C    14.522700    5.699700   24.115200
H    14.040000    6.504500   24.259200
N    18.159500    8.782700   27.423000
C    17.680300    8.646400   25.994100
H    18.085800    9.370300   25.454200
H    18.008600    7.786300   25.634100
C    16.183100    8.708200   25.817700
H    15.965500    8.601700   24.863900
H    15.768900    7.969400   26.321600
H    15.846100    9.557700   26.145200
C    17.634700    7.645700   28.272400
H    18.012100    7.737300   29.183000
H    16.651800    7.739400   28.348000
C    17.941900    6.261800   27.772100
H    17.561000    5.599600   28.387600
H    17.548700    6.142600   26.879500
H    18.912500    6.140400   27.718100
C    17.647000   10.100600   27.966500
H    17.862900   10.816000   27.318600
H    16.660500   10.051700   28.038500
C    18.212200   10.473200   29.309000
H    17.836500   11.333400   29.593400
H    17.982200    9.783400   29.964100
H    19.188100   10.549900   29.240600
C    19.672500    8.761400   27.419400
H    19.965600    7.914000   27.001900
H    19.977900    8.746500   28.362400
C    20.385100    9.911100   26.713900
H    21.354000    9.785500   26.782300
H    20.123600    9.926100   25.767300
H    20.135900   10.760700   27.135000
N    13.352000   17.614400   16.135600
C    14.408600   18.593800   15.653300
H    14.248900   18.791800   14.699500
H    14.313800   19.441200   16.157200
C    15.818000   18.087000   15.818900
H    16.448200   18.759900   15.487700
H    15.993600   17.908200   16.765500
H    15.928600   17.258800   15.304200
C    13.464300   16.307100   15.365400
H    14.359500   15.919600   15.530900
H    12.793800   15.672600   15.725300
C    13.266000   16.424200   13.889700
H    13.353700   15.538500   13.479300
H    12.370800   16.779800   13.709700
H    13.940000   17.028900   13.515300
C    11.995200   18.257400   15.887300
H    11.909200   19.049400   16.474000
H    11.961800   18.572500   14.951500
C    10.812200   17.346100   16.132000
H     9.981900   17.833700   15.952100
H    10.870100   16.566800   15.538100
H    10.817400   17.045900   17.064200
C    13.578400   17.275800   17.586100
H    14.405100   16.735000   17.654500
H    12.827100   16.711600   17.895700
C    13.704800   18.453300   18.518300
H    13.850400   18.131800   19.432600
H    14.464800   19.009000   18.241200
H    12.881600   18.985500   18.486000
N     8.928800   18.591700   24.835100
C     7.575500   18.706600   24.176400
H     6.899800   18.323400   24.791900
H     7.364900   19.666900   24.068500
C     7.431600   18.044500   22.848300
H     6.520600   18.178600   22.510000
H     8.072300   18.434100   22.214800
H     7.607100   17.084200   22.938300
C     9.325500   17.146000   25.040300
H     9.465900   16.730800   24.151200
H    10.194300   17.124700   25.515400
C     8.349600   16.300700   25.806900
H     8.695400   15.389400   25.886100
H     8.221500   16.679700   26.703100
H     7.491300   16.285800   25.335400
C     8.790100   19.336800   26.156000
H     8.516300   20.267300   25.961700
H     8.063500   18.913200   26.677900
C    10.025800   19.368800   26.998300
H     9.843300   19.864900   27.826100
H    10.292600   18.453300   27.221400
H    10.747200   19.809500   26.505200
C    10.020600   19.255900   24.000100
H    10.859500   19.241000   24.525600
H    10.169700   18.700200   23.193800
C     9.781800   20.646300   23.557400
H    10.547100   20.959300   23.035500
H     8.972700   20.678200   23.006700
H     9.664200   21.221100   24.342000
N    12.144400    6.174500   16.308400
C    13.638100    6.366100   16.168000
H    13.827600    7.343400   16.103200
H    14.085600    6.038200   16.988600
C    14.252400    5.684800   14.980200
H    15.210700    5.861500   14.955000
H    14.090900    4.722400   15.045000
H    13.832900    6.029700   14.159600
C    11.672200    4.767100   16.099600
H    12.005700    4.454200   15.225000
H    10.678800    4.782000   16.045600
C    12.058400    3.755800   17.139800
H    11.698500    2.878600   16.898700
H    13.041300    3.700400   17.186600
H    11.710800    4.028300   18.010800
C    11.812600    6.585400   17.726500
H    10.840200    6.427900   17.877700
H    12.304100    5.997800   18.352800
C    12.111000    8.018300   18.072000
H    11.867000    8.192900   19.004300
H    13.076400    8.182300   17.953300
H    11.609000    8.612400   17.481800
C    11.408900    7.064500   15.336600
H    11.602000    8.007700   15.563300
H    11.758200    6.896300   14.429600
C     9.917000    6.877100   15.315000
H     9.527300    7.492400   14.663500
H     9.711600    5.955200   15.066600
H     9.557200    7.070900   16.204000
C    17.620700   10.624400   33.991700
H    17.641700    9.823900   34.578400
H    17.631200   11.425000   34.567600
Cl   16.181400   10.605200   33.052300
Cl   19.005500   10.624400   32.976700
C    22.817900   13.575400   29.247800
H    22.078900   14.148100   29.553800
H    23.639300   13.841500   29.744500
Cl   23.079400   13.830900   27.585000
Cl   22.454500   11.906200   29.604200

QM/MM links (counting starts at zero)
  2   13
  4   47
  6   81
  8  115
 10  149
 12  183
