79
QM: 47 at, MM: 32 at, Links: 2
C     7.148900    3.421700    1.070500
H     7.671200    3.852700    1.709100
C     7.733700    3.033400   -0.105100
H     8.639600    3.188100   -0.249800
C     6.980000    2.415100   -1.071700
H     7.359300    2.173900   -1.885400
C     5.645300    2.155600   -0.814900
H     5.117900    1.723400   -1.447600
C     5.107500    2.549000    0.399300
C     3.703900    2.362000    0.795000
C     2.094100    2.899000    2.541500
H     1.682300    2.026400    2.447000
H     1.531000    3.556600    2.103700
C     2.268600    3.247600    4.014800
H     1.440700    3.616200    4.360400
H     2.473100    2.442900    4.515700
C     2.987000    5.672400    4.067400
H     3.542200    6.209300    4.654600
H     2.061100    5.792300    4.331200
C     3.171000    6.129400    2.638400
H     2.422000    5.826600    2.100200
H     3.193700    7.098300    2.606900
C     5.662200    6.420700    2.261300
H     5.418100    7.358200    2.206500
H     6.290800    6.231600    1.548000
C     6.321000    6.149700    3.599200
H     7.260100    6.388000    3.566500
H     5.892900    6.670400    4.296200
C     6.804800    4.093600    4.808700
C     6.410800    2.679100    4.920800
C     6.951400    1.795200    5.836000
H     7.591200    2.077300    6.448900
C     6.520900    0.484500    5.818500
H     6.858300   -0.131900    6.427900
C     5.587400    0.104800    4.888100
H     5.300600   -0.779000    4.850700
C     5.078100    1.028000    4.012500
H     4.444400    0.751100    3.390200
N     5.848000    3.204800    1.336700
N     3.441200    2.898200    1.943800
N     3.364000    4.235000    4.194500
H     3.701500    4.115600    5.031700
N     4.442200    5.578900    2.083500
H     4.321200    5.454400    1.189600
N     6.167500    4.704800    3.873000
N     5.457500    2.311800    4.017700
Fe    4.817900    3.788400    2.897800
C     2.729400    1.656000   -0.061900
C     2.951300    0.354600   -0.449500
H     3.723900   -0.089000   -0.182100
C     2.004100   -0.299700   -1.250300
H     2.144300   -1.181200   -1.511800
C     0.872800    0.362500   -1.646100
H     0.245200   -0.072400   -2.177300
C     0.660700    1.651800   -1.266700
H    -0.109600    2.093800   -1.542200
C     1.574200    2.308000   -0.479800
H     1.420300    3.189300   -0.225300
C     7.858700    4.652100    5.683100
C     7.639600    4.860100    7.040800
H     6.799600    4.690000    7.402700
C     8.650000    5.312300    7.849900
H     8.493600    5.444000    8.757000
C     9.895900    5.570500    7.325700
H    10.576500    5.883700    7.875500
C    10.131200    5.366700    5.990100
H    10.977000    5.532100    5.639900
C     9.121700    4.916600    5.161200
H     9.286400    4.791000    4.255300
O     8.522700    2.255200   -4.443300
O     9.939900    0.443500   -4.654600
O    10.804300    2.520000   -4.296200
O     9.640400    1.440000   -2.595200
Cl    9.726400    1.656000   -3.971200
O    10.930300    4.237000    0.746000
O     9.612000    5.822400    1.677600
O    11.682500    6.287700    0.849900
O    11.529000    5.199300    2.804200
Cl   10.911800    5.328800    1.558500

QM/MM links (counting starts at zero)
  9   47
 28   58
