79
QM: 47 at, MM: 32 at, Links: 8
Fe    0.000000    7.011500    8.172200
Br    2.172900    7.114900    7.009600
C    -0.912800    7.869800    6.764900
N    -1.508800    8.452400    5.963300
C    -2.179300    9.396200    5.160700
C    -2.314100    9.154100    3.791600
C    -2.884300   10.169300    3.026000
H    -2.974200   10.051500    2.087600
C    -3.321000   11.343800    3.607200
H    -3.681800   12.034000    3.063000
C    -3.236000   11.522300    4.982400
H    -3.578400   12.317300    5.373900
C    -2.656900   10.553100    5.792900
C    -0.366200    5.323700    7.442700
N    -0.621100    4.276400    7.024800
C    -0.982500    3.100000    6.354000
C    -1.410400    1.995600    7.098400
C    -1.794600    0.867600    6.376300
H    -2.090300    0.093400    6.840600
C    -1.752200    0.857600    4.997600
H    -2.017900    0.077400    4.525200
C    -1.327800    1.969200    4.296000
H    -1.313400    1.944900    3.346300
C    -0.922600    3.119100    4.954200
Br   -2.172900    6.908000    9.334800
C     0.912800    6.153100    9.579500
N     1.508800    5.570500   10.381100
C     2.179300    4.626700   11.183700
C     2.314100    4.868800   12.552800
C     2.884300    3.853600   13.318400
H     2.974200    3.971400   14.256800
C     3.321000    2.679100   12.737200
H     3.681800    1.988900   13.281400
C     3.236000    2.500600   11.362000
H     3.578400    1.705600   10.970500
C     2.656900    3.469800   10.551500
C     0.366200    8.699200    8.901700
N     0.621100    9.746500    9.319600
C     0.982500   10.922900    9.990400
C     1.410400   12.027300    9.246000
C     1.794600   13.155300    9.968100
H     2.090300   13.929500    9.503800
C     1.752200   13.165300   11.346800
H     2.017900   13.945500   11.819200
C     1.327800   12.053700   12.048400
H     1.313400   12.078000   12.998100
C     0.922600   10.903800   11.390200
C    -1.892500    7.856500    3.166400
H    -1.515800    7.269400    3.854800
H    -2.670400    7.422800    2.757400
H    -1.216000    8.029600    2.478800
C    -2.545900   10.737600    7.284400
H    -2.111900    9.952700    7.679300
H    -2.012100   11.536900    7.475900
H    -3.441500   10.843300    7.668000
C    -1.463500    2.027400    8.606500
H    -0.814400    2.680100    8.942500
H    -1.246700    1.139400    8.959700
H    -2.364000    2.283400    8.896300
C    -0.472300    4.349900    4.221100
H     0.451200    4.560400    4.472600
H    -1.054700    5.101900    4.457100
H    -0.519600    4.190500    3.255300
C     1.892500    6.166400   13.178000
H     1.515800    6.753500   12.489600
H     2.670400    6.600100   13.587000
H     1.216000    5.993300   13.865600
C     2.545900    3.285300    9.060000
H     2.111900    4.070200    8.665100
H     2.012100    2.486000    8.868500
H     3.441500    3.179600    8.676400
C     1.463500   11.995500    7.737900
H     0.814400   11.342800    7.401900
H     1.246700   12.883500    7.384700
H     2.364000   11.739500    7.448100
C     0.472300    9.673000   12.123300
H    -0.451200    9.462500   11.871800
H     1.054700    8.921000   11.887300
H     0.519600    9.832400   13.089100

QM/MM links (counting starts at zero)
  5   47
 12   51
 16   55
 23   59
 28   63
 35   67
 39   71
 46   75
