106
QM: 61 at, MM: 45 at, Links: 0
Fe   10.861000    0.000000    3.724000
N     9.732500   -0.913200    5.014000
N     9.205600   -2.939600    3.792500
N    10.621000   -1.468200    2.477200
N     9.626100    0.764400    6.759800
N    13.454200   -1.491400    4.608800
C     9.305500   -0.395800    6.210900
C     8.363600   -1.323100    6.835000
C     7.656600   -1.260100    8.024500
C     6.855500   -2.350300    8.333600
C     6.753400   -3.445100    7.483800
C     7.445600   -3.490100    6.281600
C     8.259100   -2.410500    5.974000
C     9.107400   -2.122000    4.827800
C     9.927400   -2.630300    2.725200
C    10.129200   -3.554400    1.617700
C     9.700400   -4.861600    1.418100
C    10.150700   -5.501500    0.274100
C    10.980500   -4.870100   -0.641300
C    11.398000   -3.557000   -0.445400
C    10.965300   -2.923300    0.707600
C    11.262600   -1.607200    1.274400
C    12.491000   -0.936700    4.347400
H     7.715700   -0.506100    8.601000
H     6.366700   -2.350300    9.147600
H     6.197300   -4.177100    7.729500
H     7.365900   -4.231400    5.693300
H     9.125400   -5.295800    2.037000
H     9.883500   -6.399300    0.111700
H    11.269400   -5.341400   -1.414400
H    11.955800   -3.114900   -1.074700
C    10.459400    1.607200    6.173600
N    11.101000    1.468200    4.970800
N    11.989500    0.913200    2.434000
C    12.416500    0.395800    1.237100
N    12.095900   -0.764400    0.688200
C     9.231000    0.936700    3.100600
N     8.267800    1.491400    2.839200
C    13.358400    1.323100    0.613000
C    14.065400    1.260100   -0.576500
C    14.866500    2.350300   -0.885600
C    14.968600    3.445100   -0.035800
C    14.276400    3.490100    1.166400
C    13.462900    2.410500    1.474000
C    12.614600    2.122000    2.620200
N    12.516400    2.939600    3.655500
C    11.794600    2.630300    4.722800
C    11.592800    3.554400    5.830300
C    12.021600    4.861600    6.029900
C    11.571300    5.501500    7.173900
C    10.741500    4.870100    8.089300
C    10.324000    3.557000    7.893400
C    10.756700    2.923300    6.740400
H     9.766200    3.114900    8.522700
H    10.452600    5.341400    8.862400
H    11.838500    6.399300    7.336300
H    12.596600    5.295800    5.411000
H    14.356100    4.231400    1.754700
H    15.524700    4.177100   -0.281500
H    15.355300    2.350300   -1.699600
H    14.006300    0.506100   -1.153000
P    16.291500   -5.430500    5.586000
C    14.903500   -5.752900    4.500100
C    15.001200   -6.805500    3.598900
C    13.989000   -7.037900    2.689500
C    12.883300   -6.223400    2.677600
C    12.787700   -5.172000    3.549700
C    13.800000   -4.911300    4.465100
H    15.765800   -7.368100    3.608600
H    14.058500   -7.759100    2.074300
H    12.181700   -6.390600    2.060100
H    12.021000   -4.613800    3.528900
H    13.739200   -4.170600    5.056400
C    15.969100   -4.042500    6.671900
C    14.916500   -4.140200    7.573100
C    14.684100   -3.128000    8.482500
C    15.498600   -2.022300    8.494400
C    16.550000   -1.926700    7.622300
C    16.810700   -2.939000    6.706900
H    17.551400   -2.878200    6.115600
H    17.108200   -1.160000    7.643100
H    15.331400   -1.320700    9.111900
H    13.962900   -3.197500    9.097700
H    14.353900   -4.904800    7.563400
C    16.613900   -6.818500    6.671900
C    17.666500   -6.720800    7.573100
C    17.898900   -7.733000    8.482500
C    17.084400   -8.838700    8.494400
C    16.033000   -8.934300    7.622300
C    15.772300   -7.922000    6.706900
H    15.031600   -7.982800    6.115600
H    15.474800   -9.701000    7.643100
H    17.251600   -9.540300    9.111900
H    18.620100   -7.663500    9.097700
H    18.229100   -5.956200    7.563400
C    17.679500   -5.108100    4.500100
C    17.581800   -4.055500    3.598900
C    18.594000   -3.823100    2.689500
C    19.699700   -4.637600    2.677600
C    19.795300   -5.689000    3.549700
C    18.783000   -5.949700    4.465100
H    18.843800   -6.690400    5.056400
H    20.562000   -6.247200    3.528900
H    20.401300   -4.470400    2.060100
H    18.524500   -3.101900    2.074300
H    16.817200   -3.492900    3.608600

QM/MM links (counting starts at zero)
