91
QM: 65 at, MM: 26 at, Links: 0
Fe   -1.809900    3.691500    3.306700
N    -3.844500    4.265800    0.966900
N    -2.618700    3.779000    1.279000
N    -4.425100    5.428000    3.155900
N    -3.281200    5.176700    3.849000
N    -2.983500    1.921500    3.969400
N    -3.045200   -2.901100    3.970700
C    -1.991500    3.627100    0.113800
H    -1.121300    3.307700    0.029100
C    -2.780700    3.998500   -0.948400
H    -2.575500    3.981600   -1.854400
C    -3.951600    4.400900   -0.346500
H    -4.702000    4.720300   -0.793600
C    -3.160400    6.149700    4.741900
H    -2.452300    6.229900    5.338400
C    -4.226200    7.033300    4.670400
H    -4.379500    7.787400    5.191600
C    -4.993100    6.542300    3.666500
H    -5.791900    6.916500    3.371500
C    -2.443200    0.716100    3.675800
C    -3.052400   -0.489600    4.035500
C    -4.247900   -0.426300    4.751100
H    -4.681000   -1.210000    5.005100
C    -4.781800    0.790700    5.077800
H    -5.564800    0.851200    5.573800
C    -4.117500    1.931700    4.644000
H    -4.497800    2.757600    4.843700
C    -2.420800   -1.751600    3.648000
C    -2.428600   -4.012600    3.630800
H    -2.831100   -4.827200    3.827900
B    -4.943000    4.475500    2.038300
H    -5.187300    3.621500    2.425800
H    -5.732600    4.856800    1.624300
N    -0.636200    1.921500    2.644100
N    -0.574500   -2.901100    2.642700
C    -1.176500    0.716100    2.937700
C    -0.567300   -0.489600    2.577900
C     0.628200   -0.426300    1.862400
H     1.061300   -1.210000    1.608400
C     1.162100    0.790700    1.535600
H     1.945100    0.851200    1.039600
C     0.497800    1.931700    1.969500
H     0.878000    2.757600    1.769800
C    -1.198900   -1.751600    2.965500
C    -1.191100   -4.012600    2.982700
H    -0.788600   -4.827200    2.785600
N     0.224800    4.265800    5.646600
N    -1.001000    3.779000    5.334400
N     0.805300    5.428000    3.457500
N    -0.338600    5.176700    2.764400
C    -1.628200    3.627100    6.499700
H    -2.498400    3.307700    6.584400
C    -0.839000    3.998500    7.561800
H    -1.044200    3.981600    8.467900
C     0.331900    4.400900    6.960000
H     1.082300    4.720300    7.407100
C    -0.459300    6.149700    1.871600
H    -1.167500    6.229900    1.275100
C     0.606400    7.033300    1.943000
H     0.759800    7.787400    1.421900
C     1.373400    6.542300    2.947000
H     2.172200    6.916500    3.241900
B     1.323200    4.475500    4.575200
H     1.567500    3.621500    4.187600
H     2.112800    4.856800    4.989200
N    -2.935700   -3.375200    0.119000
N    -3.819800   -0.830100    0.494700
N    -7.885900   -2.486100    2.510500
N    -7.009100   -5.114200    2.017100
C    -4.151900   -3.214900    0.697100
C    -4.959600   -4.286900    1.071400
C    -4.512500   -5.585600    0.796300
H    -5.036700   -6.322800    1.013200
C    -3.309500   -5.750200    0.211600
H    -2.988800   -6.601400    0.023800
C    -2.552600   -4.623200   -0.107100
H    -1.723900   -4.756900   -0.503900
C    -4.616000   -1.834600    0.917900
C    -5.865400   -1.612400    1.511800
C    -6.296300   -0.294100    1.645400
H    -7.120800   -0.108300    2.030300
C    -5.500000    0.717500    1.208900
H    -5.774600    1.602500    1.281700
C    -4.266200    0.403800    0.653400
H    -3.722200    1.104400    0.375600
C    -6.253400   -4.040700    1.701000
C    -6.682400   -2.730900    1.921900
C    -8.607900   -3.531400    2.817300
H    -9.436300   -3.399200    3.219400
C    -8.186200   -4.839900    2.566000
H    -8.750600   -5.543300    2.790900

QM/MM links (counting starts at zero)
