89
QM: 27 at, MM: 62 at, Links: 6
Fe    3.140200   16.417900    3.806400
N     3.205700   18.627500    3.826200
N     1.006500   16.828700    3.473100
N     3.242400   16.751500    1.611800
N     2.920300   16.165900    5.946500
N     2.891800   14.278100    3.689700
O     5.208100   16.174200    4.014500
C     1.867700   19.006700    4.304900
H     1.752300   19.953100    4.188700
H     1.805000   18.815400    5.244900
C     0.763100   18.290200    3.589200
H    -0.063100   18.431200    4.055300
H     0.671500   18.662700    2.708800
C     0.825400   16.321900    2.090400
H    -0.051100   16.566900    1.782800
H     0.870200   15.363800    2.107700
C     1.846700   16.838700    1.114300
H     1.779300   16.340400    0.296600
H     1.648800   17.756600    0.913400
C     3.971500   18.033500    1.519200
H     3.923000   18.343900    0.612100
H     4.896600   17.885800    1.727900
C     3.441000   19.099000    2.426300
H     4.056600   19.835600    2.446700
H     2.610400   19.421200    2.066900
C     2.890200   15.674200    6.966600
C     2.657500   13.165600    3.688100
O     7.350700   15.321800    3.346000
O     7.214700   17.355600    4.667400
S     6.620200   16.101900    4.294800
C     6.663200   15.123800    5.822500
F     7.898400   14.828500    6.166200
F     5.998600   13.984500    5.695400
F     6.116600   15.791700    6.828500
C     4.301000   19.058700    4.742700
H     5.131400   18.755000    4.367700
H     4.180000   18.602300    5.577700
C     4.456100   20.552100    5.061300
H     4.124700   21.052200    4.311200
C     3.703800   21.001800    6.310600
H     2.764500   20.837400    6.207000
H     4.035000   20.505200    7.062300
H     3.852100   21.938200    6.456500
C     5.929400   20.824000    5.208900
H     6.390600   20.547100    4.413200
H     6.077900   21.762000    5.353200
H     6.260600   20.327300    5.960600
C     0.143600   16.083600    4.446100
H     0.288300   16.441000    5.326600
H     0.429000   15.165800    4.454000
C    -1.373200   16.110500    4.141700
H    -1.520500   16.744800    3.437000
C    -2.134600   16.577000    5.356400
H    -3.076400   16.613900    5.169600
H    -1.974600   15.961100    6.075200
H    -1.826000   17.449500    5.610600
C    -1.893600   14.754700    3.670800
H    -2.832000   14.808400    3.477800
H    -1.419000   14.482800    2.883000
H    -1.747000   14.112000    4.370800
C     4.015500   15.645700    0.969900
H     3.452800   14.868800    0.963600
H     4.761600   15.447700    1.542700
C     4.548600   15.825200   -0.428400
H     5.203300   16.526600   -0.398600
C     5.297900   14.548300   -0.831800
H     5.657800   14.620400   -1.718500
H     6.012600   14.395600   -0.208700
H     4.680000   13.815000   -0.795700
C     3.546300   16.204400   -1.506600
H     3.978600   16.301800   -2.357200
H     2.880100   15.516500   -1.561600
H     3.129300   17.035100   -1.261800
C     2.873400   15.006400    8.230000
H     3.666500   14.472800    8.319400
H     2.121200   14.415700    8.308400
H     2.869800   15.639000    8.951900
C     2.337000   11.754400    3.692800
H     1.560200   11.642000    4.391200
H     3.044100   11.173800    3.565700
H     1.907500   11.566500    2.857900
S     0.045000   12.221400    7.417600
O    -0.575200   10.932200    7.368400
O     0.375800   12.761200    6.185000
O     1.007300   12.313200    8.448100
C    -1.284600   13.259600    7.961600
F    -1.635600   13.021300    9.188900
F    -0.870500   14.533200    8.035300
F    -2.326600   13.259600    7.159600

QM/MM links (counting starts at zero)
  1   34
  2   47
  3   60
  6   29
 25   73
 26   77
