79
QM: 33 at, MM: 46 at, Links: 2
Fe    4.346200    4.162000    0.954200
S     2.993800    7.204000   -2.489400
S     6.691200    1.053900   -1.804600
N     2.516000    3.125000    1.339700
N     3.982100    5.496500    2.719900
C     3.292600    6.168900   -1.279300
N     4.804200    2.759200    2.619000
C     5.035000    6.086300    3.137200
H     5.011800    6.585900    3.932900
C     3.776300    2.205400    3.116800
H     3.845900    1.687000    3.899000
N     6.189500    5.223300    1.269100
N     5.178500    2.928000   -0.449600
C     2.483700    2.385000    2.461900
C     1.378600    3.262500    0.656600
H     1.391200    3.765000   -0.139100
C     5.807300    2.146100   -1.018000
C     6.269400    5.979200    2.377000
N     3.499100    5.437600   -0.402100
C     1.324000    1.813000    2.930200
H     1.326400    1.310500    3.725900
C     0.187500    2.702100    1.062100
H    -0.591500    2.812200    0.548000
C     0.155300    1.986800    2.219300
H    -0.649900    1.616100    2.528000
C     7.282100    5.133500    0.515800
H     7.247600    4.623800   -0.273200
C     8.462000    5.760500    0.851700
H     9.209900    5.683800    0.288400
C     7.427900    6.598900    2.772400
H     7.451300    7.095600    3.571500
C     8.542400    6.487400    1.993600
H     9.347800    6.905900    2.241300
C     2.791200    5.575100    3.512100
C     6.079100    2.621000    3.245700
C     0.426200    5.837300    3.583400
H    -0.394600    5.976300    3.145600
C     1.593200    5.786600    2.869100
H     1.577000    5.898100    1.935900
C     0.472600    5.682300    4.937300
C     7.158700    2.286500    2.441500
H     7.020600    2.107000    1.528700
C     1.655800    5.469400    5.602400
H     1.668900    5.366600    6.537300
C     6.286600    2.912100    4.581000
H     5.567900    3.161200    5.134100
C     7.586900    2.826700    5.091700
H     7.746400    3.012000    5.999500
N    10.163300    2.222800    5.834900
C    14.169300    1.698600    7.098900
H    15.042000    1.546600    7.416200
C     8.635800    2.473300    4.268800
N    10.097800    2.351700    4.667600
N    -1.566200    5.722900    5.319100
N    -0.717800    5.818400    6.030000
C    11.626700    2.070800    6.206400
C     8.417900    2.214100    2.959000
H     9.139700    1.983900    2.402500
C     2.806700    5.407200    4.877900
H     3.623000    5.249300    5.315700
C    12.683500    2.344500    5.349600
H    12.532800    2.648600    4.472400
C    13.120200    1.464000    7.898000
H    13.266100    1.165700    8.778600
C    13.982200    2.153300    5.833200
H    14.721800    2.338700    5.283500
C    -2.825600    5.921200    6.320100
C    11.850700    1.652300    7.458600
H    11.126400    1.487200    8.033800
C    -5.168700    6.331000    7.640100
H    -5.992700    6.468600    8.072800
C    -3.984100    5.650400    5.700800
H    -3.986200    5.333300    4.815200
C    -5.146700    5.838700    6.362500
H    -5.956100    5.627300    5.936700
C    -3.998400    6.625000    8.291700
H    -4.011000    6.959500    9.170500
C    -2.782500    6.417900    7.621500
H    -1.962000    6.607600    8.038900

QM/MM links (counting starts at zero)
  4   33
  6   34
