79
QM: 33 at, MM: 46 at, Links: 2
Fe    4.351000    4.139500    0.975000
S     2.996400    7.160300   -2.468700
N     6.178400    5.181400    1.240400
N     3.986200    5.475300    2.695000
N     3.525000    5.399000   -0.381500
C     7.257000    5.084200    0.474500
H     7.205800    4.563700   -0.307300
C     8.436900    5.705700    0.768300
H     9.176100    5.613400    0.195900
C     8.533300    6.461200    1.899700
H     9.342500    6.885200    2.124200
C     7.422300    6.592500    2.711900
H     7.459800    7.105800    3.497100
C     6.260300    5.952200    2.340700
C     5.033800    6.071800    3.104300
H     5.012400    6.583800    3.892200
C     3.307600    6.126700   -1.254500
S     6.657000    1.050700   -1.809200
N     2.538200    3.120600    1.333000
N     4.815500    2.762000    2.608400
N     5.151200    2.912100   -0.422700
C     1.409200    3.261600    0.643200
H     1.427900    3.769200   -0.148600
C     0.209800    2.696400    1.040200
H    -0.566000    2.808900    0.521800
C     0.175200    1.976900    2.191800
H    -0.632900    1.602000    2.494000
C     1.337400    1.801400    2.912000
H     1.335100    1.299200    3.706400
C     2.505600    2.376100    2.448100
C     3.789400    2.197200    3.101400
H     3.860100    1.671200    3.877000
C     5.770500    2.134000   -0.999800
N    -0.719000    5.791300    5.991400
N    -1.569100    5.700600    5.276500
C     2.792000    5.549700    3.474300
C     2.817400    5.380700    4.842700
H     3.634500    5.221200    5.278500
C     1.654300    5.444700    5.570600
H     1.673400    5.340900    6.504400
C     0.467200    5.662400    4.922200
C     0.419100    5.820700    3.566500
H    -0.402300    5.969500    3.135700
C     1.591200    5.760300    2.832900
H     1.568400    5.862800    1.899700
C    -2.815700    5.894600    6.259600
C    -2.782400    6.371800    7.558100
H    -1.962500    6.549200    7.981900
C    -4.005600    6.589600    8.236900
H    -4.010800    6.924100    9.115000
C    -5.183800    6.305500    7.591900
H    -6.003600    6.442500    8.030900
C    -5.169500    5.821000    6.306900
H    -5.978400    5.619200    5.874600
C    -3.982400    5.632100    5.655100
H    -3.986000    5.313500    4.770300
N    10.101300    2.347300    4.640100
N    10.182200    2.218500    5.813800
C     6.093100    2.627800    3.207500
C     7.158100    2.271500    2.411300
H     7.016100    2.073500    1.502800
C     8.426500    2.203300    2.931700
H     9.145400    1.972500    2.372500
C     8.653100    2.467300    4.247500
C     7.613500    2.837700    5.059700
H     7.773100    3.041000    5.964100
C     6.321400    2.912500    4.548200
H     5.605300    3.154900    5.108000
C    11.633500    2.067700    6.192000
C    12.682700    2.346000    5.324100
H    12.518500    2.654600    4.451100
C    13.986600    2.152800    5.786800
H    14.719100    2.338800    5.226200
C    14.191800    1.694300    7.058300
H    15.066100    1.544300    7.365600
C    13.131600    1.450600    7.880600
H    13.283600    1.140600    8.755300
C    11.859300    1.649600    7.448400
H    11.136400    1.495300    8.027500

QM/MM links (counting starts at zero)
  3   35
 19   58
