79
QM: 33 at, MM: 46 at, Links: 2
Fe    4.340800    4.128000    1.020000
S     3.020800    7.129200   -2.442800
S     6.597700    1.062500   -1.810000
N     2.555600    3.132100    1.336900
N     3.971900    5.450000    2.665700
C     3.337900    6.090500   -1.216300
N     4.810100    2.781800    2.596400
C     5.010300    6.073200    3.076200
H     4.984500    6.601100    3.865900
C     3.797000    2.195100    3.106800
H     3.881600    1.664300    3.889400
N     6.137700    5.147300    1.225700
N     5.092000    2.896000   -0.367100
C     2.509200    2.365300    2.449700
C     1.436700    3.262300    0.632500
H     1.461600    3.774300   -0.168200
C     5.709600    2.130200   -0.972400
C     6.232700    5.950600    2.299700
N     3.566700    5.375200   -0.336500
C     1.343800    1.788400    2.893500
H     1.335500    1.279300    3.696000
C     0.238600    2.689800    1.009400
H    -0.538600    2.803700    0.476100
C     0.186600    1.957100    2.161700
H    -0.631800    1.572000    2.452800
C     7.209900    5.039200    0.440800
H     7.150800    4.498300   -0.339800
C     8.388000    5.672300    0.711600
H     9.126900    5.568500    0.122800
C     7.398700    6.598200    2.646200
H     7.442600    7.133300    3.430200
C     8.505200    6.452500    1.825300
H     9.325000    6.886600    2.032200
C     2.774900    5.532400    3.460400
C     6.102900    2.637800    3.194600
C     0.406600    5.810700    3.531100
H    -0.423700    5.959300    3.092000
C     1.578700    5.751600    2.810900
H     1.564200    5.859800    1.867300
C     0.459800    5.655000    4.890400
C     7.163900    2.280200    2.378700
H     7.012400    2.085500    1.461900
C     1.648300    5.438600    5.544800
H     1.664100    5.340600    6.490200
C     6.329300    2.936400    4.527000
H     5.608400    3.193100    5.090600
C     7.625000    2.857100    5.031700
H     7.788800    3.064700    5.943500
N    10.204300    2.215300    5.808900
C    14.200900    1.683100    7.035300
H    15.088100    1.528800    7.336400
C     8.669200    2.479200    4.219200
N    10.080600    2.353700    4.601000
N    -1.633900    5.691000    5.245500
N    -0.718400    5.780500    5.931700
C    11.622700    2.068200    6.180700
C     8.433100    2.206600    2.898600
H     9.157200    1.964300    2.333300
C     2.800600    5.368000    4.828100
H     3.624700    5.203600    5.270600
C    12.683200    2.352300    5.317700
H    12.519200    2.673900    4.437900
C    13.149800    1.439300    7.863000
H    13.310600    1.124900    8.746200
C    13.983100    2.153200    5.768500
H    14.717900    2.343600    5.198200
C    -2.877900    5.878500    6.190800
C    11.860500    1.639800    7.439000
H    11.135200    1.478300    8.029500
C    -5.221700    6.298200    7.534900
H    -6.049500    6.432300    7.979100
C    -4.041200    5.623300    5.575100
H    -4.053700    5.306000    4.680100
C    -5.194400    5.826600    6.249700
H    -6.017500    5.634800    5.815600
C    -4.038700    6.573700    8.177600
H    -4.041100    6.908300    9.067500
C    -2.820600    6.354500    7.501300
H    -1.988000    6.524600    7.925200

QM/MM links (counting starts at zero)
  4   33
  6   34
