79
QM: 33 at, MM: 46 at, Links: 2
Fe    4.324800    4.094100    1.126900
S     3.047500    7.015400   -2.376000
S     6.429700    1.073400   -1.800400
N     2.603200    3.158200    1.332700
N     3.950300    5.389900    2.599800
C     3.408200    6.000100   -1.135200
N     4.805700    2.819500    2.574800
C     4.969700    6.071600    2.992800
H     4.927900    6.642800    3.751400
C     3.810300    2.187300    3.086800
H     3.909200    1.635100    3.854600
N     6.059900    5.055300    1.187000
N     4.957000    2.852400   -0.229800
C     2.526900    2.361500    2.428600
C     1.501500    3.282500    0.586400
H     1.547700    3.808600   -0.203100
C     5.556700    2.107300   -0.893500
C     6.184300    5.921800    2.216000
N     3.657300    5.296700   -0.246300
C     1.349800    1.754200    2.827900
H     1.319800    1.227800    3.618200
C     0.305400    2.684500    0.907500
H    -0.450800    2.793900    0.343000
C     0.213200    1.928800    2.053000
H    -0.611700    1.533000    2.307800
C     7.110500    4.908300    0.369600
H     7.029900    4.323900   -0.374600
C     8.301000    5.566100    0.561100
H     9.018700    5.443800   -0.050000
C     7.362200    6.598200    2.485900
H     7.428100    7.181100    3.233500
C     8.443400    6.402400    1.638400
H     9.270300    6.841400    1.801600
C     2.747900    5.481200    3.380400
C     6.111800    2.666300    3.148400
C     0.377700    5.787900    3.482800
H    -0.451400    5.951900    3.050400
C     1.544800    5.713700    2.736200
H     1.518900    5.820900    1.793300
C     0.419300    5.623400    4.854600
C     7.151000    2.266200    2.317600
H     6.981500    2.046800    1.408600
C     1.618700    5.407800    5.485300
H     1.648900    5.320000    6.430400
C     6.362300    2.985400    4.470700
H     5.651900    3.271700    5.033400
C     7.651300    2.887600    4.974500
H     7.825200    3.097600    5.884300
N    10.221800    2.219400    5.768200
C    14.205200    1.652700    6.973200
H    15.096800    1.485500    7.256300
C     8.684200    2.481400    4.144800
N    10.059300    2.342000    4.542400
N    -1.771400    5.656800    5.132300
N    -0.727500    5.730100    5.757200
C    11.613600    2.070000    6.131700
C     8.429700    2.189900    2.826600
H     9.145800    1.931700    2.257800
C     2.781200    5.318300    4.746400
H     3.606800    5.144400    5.181600
C    12.668300    2.339400    5.269900
H    12.502700    2.658600    4.390700
C    13.163200    1.412000    7.825700
H    13.333400    1.093900    8.704900
C    13.963900    2.136100    5.707800
H    14.693400    2.330400    5.131700
C    -2.958800    5.841000    5.980900
C    11.857500    1.633700    7.411100
H    11.135900    1.485500    8.008900
C    -5.305600    6.262800    7.351200
H    -6.124000    6.402400    7.810700
C    -4.148900    5.626600    5.353100
H    -4.167600    5.335800    4.449000
C    -5.317900    5.832400    6.040800
H    -6.149600    5.675500    5.607900
C    -4.104400    6.490200    7.998900
H    -4.093100    6.788200    8.901400
C    -2.903500    6.275700    7.302900
H    -2.066800    6.425400    7.727500

QM/MM links (counting starts at zero)
  4   33
  6   34
