106
QM: 59 at, MM: 47 at, Links: 6
C     5.283500    7.307300    5.389100
H     5.018500    7.635500    4.537900
C     5.134700    5.950100    5.653700
H     4.782700    5.373700    4.986000
C     5.500500    5.432100    6.895300
C     6.039800    6.331600    7.816800
H     6.321000    6.026800    8.672200
C     6.163400    7.664700    7.481700
C     8.810000   10.849500    5.927500
H     8.620400   11.220300    5.073700
C    10.095300   10.984500    6.439500
H    10.754700   11.450100    5.938300
C    10.424500   10.443900    7.679800
C     9.413500    9.747900    8.346900
H     9.592600    9.331100    9.181100
C     8.150700    9.668100    7.788800
C     4.204700   11.614500    7.692500
H     3.965200   12.074900    6.896400
C     3.551600   11.938100    8.867300
H     2.882300   12.611800    8.864100
C     3.867500   11.285000   10.050800
C     4.913300   10.366800   10.000900
H     5.204900    9.932800   10.794400
C     5.525900   10.088700    8.790800
Fe    5.950800   10.144700    5.849300
N     5.788200    8.178500    6.288000
N     7.819000   10.214200    6.591400
N     5.172600   10.667700    7.630200
P     6.823100    8.837900    8.697400
S     7.353200    8.072100   10.393400
C     6.618100   12.982100    6.309600
H     6.883100   12.654000    7.160800
C     6.766900   14.339400    6.044900
H     7.118900   14.915800    6.712700
C     6.401100   14.857300    4.803400
C     5.861800   13.957800    3.881900
H     5.580600   14.262700    3.026500
C     5.738200   12.624800    4.217000
C     3.091600    9.440000    5.771200
H     3.281200    9.069200    6.625000
C     1.806300    9.305000    5.259100
H     1.146900    8.839400    5.760400
C     1.477100    9.845600    4.018900
C     2.488100   10.541500    3.351800
H     2.309000   10.958300    2.517600
C     3.750900   10.621400    3.909900
C     7.696900    8.674900    4.006200
H     7.936400    8.214500    4.802300
C     8.350000    8.351400    2.831400
H     9.019300    7.677600    2.834600
C     8.034100    9.004500    1.647900
C     6.988300    9.922700    1.697800
H     6.696700   10.356700    0.904300
C     6.375700   10.200700    2.907900
N     6.113400   12.111000    5.410600
N     4.082600   10.075300    5.107300
N     6.729000    9.621800    4.068500
P     5.078400   11.451500    3.001300
S     4.548400   12.217400    1.305300
C     5.302800    3.988400    7.260100
H     4.568900    3.911400    7.904800
H     6.126300    3.637000    7.659100
H     5.085400    3.474400    6.454200
C    11.779100   10.633600    8.295800
H    12.376400   11.058700    7.646300
H    12.145400    9.762500    8.555300
H    11.700300   11.204000    9.088700
C     3.094900   11.514800   11.320900
H     2.362700   12.143300   11.148900
H     3.691600   11.886300   12.004000
H     2.726500   10.663200   11.637900
C     6.598800   16.301000    4.438600
H     7.332700   16.378100    3.793900
H     5.775300   16.652500    4.039600
H     6.816100   16.815100    5.244500
C     0.122500    9.655900    3.402900
H    -0.474800    9.230800    4.052400
H    -0.243800   10.527000    3.143400
H     0.201300    9.085400    2.610000
C     8.806700    8.774600    0.377800
H     9.538900    8.146200    0.549800
H     8.210000    8.403200   -0.305300
H     9.175100    9.626300    0.060800
C     4.603300    2.617700   11.313800
H     5.027500    3.479000   11.114900
H     5.287600    1.916200   11.343100
H     4.151000    2.669700   12.181900
C     3.635000    2.306500   10.283200
N     2.869700    2.067700    9.485100
C     8.255000    4.230200    3.735400
H     9.096900    4.694300    3.543500
H     7.525500    4.882900    3.777500
H     8.071100    3.579300    3.026500
C     8.362700    3.541000    5.010600
N     8.440000    3.001700    6.006100
C     6.414400    5.729400    0.803700
H     5.792100    5.428100    1.498600
H     6.373100    6.705900    0.730000
H     7.325400    5.457600    1.041200
C     6.047900    5.134100   -0.464400
N     5.761600    4.647600   -1.477500
Cl    4.619600    2.889100    2.810100
O     5.581600    2.673400    1.788000
O     5.277700    2.821600    4.089900
O     3.605800    1.867400    2.770700
O     4.028000    4.183900    2.651000

QM/MM links (counting starts at zero)
  4   59
 12   63
 20   67
 34   71
 42   75
 50   79
