162
QM: 47 at, MM: 115 at, Links: 12
Fe    6.367000    6.358800    4.020600
N     8.284800    5.958600    3.976800
N     6.482600    6.727400    5.937400
N     4.506500    6.992600    4.001400
N     6.171800    5.784500    2.170100
N     6.860200    8.218200    3.469100
N     5.845300    4.512200    4.522400
C     9.008600    5.718200    2.848500
C    10.393300    6.117900    3.059400
C    10.491800    6.531800    4.356400
C     9.183900    6.340000    4.959300
C     8.850200    6.325800    6.310900
C     7.521200    6.270700    6.723100
C     7.008600    5.853200    8.006400
C     5.681200    6.169400    8.020000
C     5.379500    6.791200    6.748000
C     4.231900    7.482200    6.364500
C     3.952300    7.734400    4.996500
C     2.959200    8.606700    4.452100
C     2.834300    8.290500    3.128000
C     3.768600    7.229900    2.872100
C     3.869100    6.418100    1.742800
C     4.948800    5.567200    1.549200
C     5.034800    4.444600    0.670200
C     6.353400    4.064400    0.679900
C     7.064200    4.933100    1.565900
C     8.435400    5.062700    1.747600
C     7.124900    8.501900    2.178100
H     7.148400    7.807300    1.560500
C     7.359300    9.775500    1.751500
H     7.532000    9.949600    0.854700
C     7.336400   10.782700    2.654400
H     7.475900   11.660300    2.381800
C     7.106000   10.495000    3.981100
H     7.110700   11.173600    4.617400
C     6.868900    9.201800    4.352800
H     6.708800    9.008100    5.248800
C     4.553300    4.155000    4.552200
H     3.908100    4.798100    4.371000
C     4.147500    2.881300    4.839700
H     3.245200    2.657500    4.861200
C     5.119900    1.941600    5.095300
H     4.877500    1.064100    5.287300
C     6.437700    2.291600    5.068100
H     7.100800    1.662700    5.236000
C     6.764700    3.595400    4.786500
H     7.660900    3.842400    4.781700
C    11.451900    6.247600    2.022800
H    11.470200    5.439300    1.486100
H    12.313100    6.332900    2.458800
C    11.243000    7.427100    1.121900
H    10.449400    7.293900    0.598000
H    11.999500    7.521300    0.539000
H    11.146900    8.221200    1.652900
C    11.658800    7.270800    4.952300
H    11.827800    6.949300    5.851900
H    12.453600    7.116300    4.419800
C    11.346900    8.736300    4.987200
H    11.078800    9.025900    4.111800
H    12.129000    9.223100    5.259100
H    10.636300    8.896200    5.610700
C     7.708800    4.997000    9.006900
H     7.171200    4.926000    9.809700
H     8.556700    5.402000    9.247600
C     7.947500    3.627400    8.435000
H     7.107500    3.236600    8.182500
H     8.371700    3.074900    9.093600
H     8.513300    3.696700    7.664000
C     4.657700    5.704000    9.012800
H     4.061000    6.437700    9.229600
H     5.102400    5.426900    9.830200
C     3.858900    4.552900    8.459700
H     3.417400    4.828300    7.653700
H     3.204600    4.277600    9.106400
H     4.447900    3.819300    8.267200
C     2.365200    9.796800    5.102200
H     1.948700    9.532200    5.936600
H     1.676100   10.166300    4.527600
C     3.399400   10.846700    5.374500
H     4.083500   10.482500    5.939200
H     2.987000   11.596300    5.810900
H     3.788400   11.134500    4.545500
C     1.949700    8.967300    2.128000
H     2.211300    8.681300    1.237100
H     2.090800    9.924700    2.184200
C     0.470900    8.675900    2.321800
H     0.322900    7.729100    2.279200
H    -0.033800    9.109400    1.629800
H     0.190100    9.006300    3.177500
C     3.903600    3.696700    0.075200
H     4.239400    3.078500   -0.592900
H     3.300900    4.316700   -0.364500
C     3.138300    2.918600    1.148300
H     3.703400    2.231200    1.506600
H     2.356200    2.520700    0.759700
H     2.877300    3.517300    1.850500
C     6.855900    2.796100    0.098800
H     7.725400    2.945300   -0.302900
H     6.249100    2.494100   -0.595500
C     6.969100    1.728400    1.185800
H     7.589900    2.019800    1.858200
H     7.277300    0.907700    0.798200
H     6.107600    1.588100    1.588800
C     9.920700    6.316900    7.350600
C    10.824900    5.297200    7.450200
H    10.800800    4.599100    6.835000
C    11.785600    5.290100    8.464000
H    12.395900    4.590200    8.516100
C    11.837300    6.302700    9.381800
H    12.464900    6.286700   10.068900
C    10.959800    7.325900    9.274000
H    11.007200    8.031100    9.876400
C     9.986800    7.341900    8.279500
H     9.378400    8.043500    8.238900
C     3.269100    7.899700    7.386300
C     3.626000    8.779000    8.398600
H     4.477600    9.152000    8.408300
C     2.714100    9.105800    9.401400
H     2.958500    9.679600   10.092000
C     1.433300    8.567600    9.355200
H     0.814800    8.800300   10.009900
C     1.065900    7.697100    8.360800
H     0.214100    7.324100    8.351900
C     1.971000    7.382700    7.377800
H     1.713800    6.812500    6.688700
C     2.748700    6.354200    0.744300
C     1.527100    5.798200    1.077500
H     1.346000    5.569000    1.960900
C     0.564800    5.583200    0.091900
H    -0.233300    5.162200    0.318300
C     0.772400    5.974000   -1.190700
H     0.115400    5.837300   -1.835100
C     1.959700    6.574500   -1.532500
H     2.094200    6.864000   -2.404900
C     2.968100    6.755600   -0.576200
H     3.777800    7.141100   -0.818800
C     9.345800    4.496100    0.711000
C     9.357100    5.023700   -0.580800
H     8.792800    5.734200   -0.785400
C    10.183300    4.517400   -1.557400
H    10.187700    4.886900   -2.410100
C    10.991000    3.471100   -1.254600
H    11.549500    3.114000   -1.907000
C    10.992700    2.932800    0.007200
H    11.557900    2.218700    0.200200
C    10.169800    3.430200    0.994800
H    10.173200    3.051900    1.842800
Cl   -0.469700    3.164800    2.791500
Cl    0.825700    4.870400    4.748300
C    -0.580300    3.876100    4.399200
H    -1.381500    4.419700    4.455700
H    -0.648800    3.170900    5.061400
Cl    1.073300    0.554400   -1.136800
Cl    3.969900    0.295100   -1.020800
C     2.580500    0.572000   -1.999400
H     2.549900   -0.104800   -2.692400
H     2.676900    1.433600   -2.435700
Cl   10.269600    1.836400    5.039100
O     9.675600    1.358900    3.807100
O    11.569000    1.344700    5.225700
O    10.274500    3.234800    4.931800
O     9.450600    1.415800    6.109900

QM/MM links (counting starts at zero)
  8   47
  9   54
 11  103
 13   61
 14   68
 16  114
 18   75
 19   82
 21  125
 23   89
 24   96
 26  136
