83
QM: 55 at, MM: 28 at, Links: 6
Fe    2.199000    9.805300    4.849000
O     1.278900    8.764700    6.160500
O    -1.947300   11.572500    6.243900
O     2.739100    8.372500    3.710900
O     6.660500   10.089400    3.312200
N     0.390500   10.202800    3.855400
N    -1.806100   10.103800    3.811500
N     0.454900   12.321800    7.636400
N     1.635600   11.540500    5.952700
N     4.044500    9.729600    5.807800
N     6.146800    9.095300    5.945000
N     4.537500   11.243100    1.759000
N     3.224200   11.135800    3.526600
C    -0.008600    9.849300    2.577300
H     0.572400    9.674600    1.845300
C    -1.361200    9.793000    2.539700
H    -1.899800    9.581700    1.785600
C    -0.716500   10.369800    4.575600
C    -0.784000   10.775200    6.046100
C     0.437000   11.560800    6.515700
C     1.733100   12.821200    7.769100
H     2.047900   13.399800    8.454300
C     2.453400   12.329600    6.736300
H     3.373600   12.500300    6.576200
C    -0.895300    9.515600    6.903500
C    -2.026000    9.265100    7.687200
H    -2.751100    9.878700    7.672200
C    -2.104500    8.134200    8.484500
H    -2.879100    7.966000    9.009000
C    -1.034100    7.249900    8.506100
H    -1.077900    6.477400    9.057200
C     0.095500    7.473000    7.738100
H     0.813300    6.851400    7.770500
C     0.194300    8.604600    6.913500
C     4.314800    9.370100    7.110500
H     3.691800    9.393500    7.828200
C     5.596100    8.981200    7.206100
H     6.039800    8.684700    7.992000
C     5.171500    9.561300    5.125000
C     5.325800    9.708400    3.612300
C     4.364300   10.716100    2.999000
C     3.447200   12.056400    1.508600
H     3.289500   12.568700    0.724300
C     2.649800   11.981100    2.598500
H     1.823800   12.437900    2.708300
C     5.048300    8.338200    2.976200
C     6.046800    7.651800    2.284300
H     6.911000    8.038100    2.203600
C     5.797100    6.416000    1.713600
H     6.487800    5.958000    1.250100
C     4.539100    5.848900    1.819100
H     4.368400    4.999900    1.429300
C     3.527600    6.517300    2.491200
H     2.667300    6.119400    2.552300
C     3.749900    7.772900    3.083100
C    -3.220700   10.032700    4.204400
H    -3.292800    9.622100    5.091100
H    -3.712900    9.491300    3.552000
H    -3.598300   10.935900    4.230000
C    -0.599600   12.535500    8.636900
H    -1.307900   13.091800    8.250100
H    -0.220500   12.986700    9.419300
H    -0.973400   11.670400    8.906900
C    -1.944100   12.799300    5.485400
H    -1.192700   13.359400    5.772900
H    -2.786300   13.278800    5.636200
H    -1.850700   12.593100    4.532400
C     7.521800    8.695700    5.647500
H     7.526700    8.088300    4.879200
H     7.904500    8.239800    6.425900
H     8.055100    9.491300    5.439700
C     5.600500   10.977400    0.773400
H     6.446200   11.353900    1.096000
H     5.363600   11.391800   -0.082800
H     5.698700   10.010700    0.651100
C     7.032900   11.400900    3.779900
H     6.425300   12.068800    3.397900
H     7.951600   11.598300    3.501900
H     6.975500   11.427200    4.757800
O     1.418100    3.321700    9.640100
O     3.458500    3.085100    9.011100
O     2.326600    4.815100    8.365900
N     2.413400    3.752500    8.996700

QM/MM links (counting starts at zero)
  2   63
  4   75
  6   55
  7   59
 10   67
 11   71
