77
QM: 21 at, MM: 56 at, Links: 8
Fe   25.513500    2.479500   13.556100
P    24.314000    0.636900   13.585900
P    23.600300    3.550900   13.670600
C    22.528400    1.054700   13.323400
H    22.343000    1.154500   12.355900
H    21.955200    0.330300   13.678900
C    22.229400    2.367200   14.053100
H    22.176300    2.210700   15.029800
H    21.363300    2.737400   13.747200
C    25.513500    2.479500   11.595600
C    25.513500    2.479500   10.412200
H    25.513500    2.479500    9.462900
H    25.513500    2.479500   15.048500
P    26.713000    4.322100   13.585900
P    27.426700    1.408200   13.670600
C    28.498600    3.904400   13.323400
H    28.684000    3.804600   12.355900
H    29.071800    4.628800   13.678900
C    28.797600    2.591900   14.053100
H    28.850700    2.748300   15.029800
H    29.663700    2.221700   13.747200
C    23.659200    0.230100   16.353900
H    24.094900    1.097900   16.483300
H    23.836400   -0.343200   17.129300
H    22.693400    0.362000   16.258100
C    24.211600   -0.437900   15.088500
H    23.642500   -1.217900   14.874600
H    25.118900   -0.780600   15.287600
C    23.518700   -1.679500   12.040300
H    23.298900   -2.142300   12.876100
H    23.829600   -2.331700   11.377600
H    22.720600   -1.224900   11.700600
C    24.623200   -0.647400   12.300400
H    24.812700   -0.183500   11.447500
H    25.445500   -1.138600   12.553100
C    23.628600    4.476100   16.360200
H    23.009800    3.791700   16.688300
H    23.574500    5.267500   16.936700
H    24.544000    4.123000   16.373000
C    23.251000    4.862300   14.924600
H    23.748000    5.681100   14.674200
H    22.285200    5.078100   14.897900
C    21.631700    5.103100   12.182700
H    20.927900    4.515700   12.528200
H    21.390500    5.407300   11.282900
H    21.730700    5.878500   12.773600
C    22.959100    4.332100   12.125600
H    23.652700    4.955100   11.793700
H    22.863500    3.618100   11.447500
C    27.367800    4.729000   16.353900
H    26.932100    3.861100   16.483300
H    27.190600    5.302200   17.129300
H    28.333600    4.597000   16.258100
C    26.815400    5.396900   15.088500
H    27.384500    6.177000   14.874600
H    25.908100    5.739600   15.287600
C    27.508300    6.638600   12.040300
H    27.728100    7.101400   12.876100
H    27.197400    7.290800   11.377600
H    28.306400    6.183900   11.700600
C    26.403800    5.606400   12.300400
H    26.214300    5.142500   11.447500
H    25.581500    6.097600   12.553100
C    27.398400    0.482900   16.360200
H    28.017200    1.167400   16.688300
H    27.452500   -0.308500   16.936700
H    26.483000    0.836100   16.373000
C    27.776000    0.096700   14.924600
H    27.279000   -0.722000   14.674200
H    28.741800   -0.119000   14.897900
C    29.395300   -0.144000   12.182700
H    30.099100    0.443300   12.528200
H    29.636500   -0.448300   11.282900
H    29.296300   -0.919400   12.773600
C    28.067900    0.626900   12.125600
H    27.374300    0.004000   11.793700
H    28.163500    1.340900   11.447500

QM/MM links (counting starts at zero)
  1   25
  1   32
  2   39
  2   46
 13   53
 13   60
 14   67
 14   74
