146
QM: 21 at, MM: 125 at, Links: 10
Fe    1.125100   11.557300    3.991400
P     1.956800   12.751500    5.627800
P     0.203800   10.349800    5.606100
N     2.747100   10.321800    3.887900
H     2.674100    9.703700    4.670900
N     0.367300   10.292300    2.562100
H     0.571100   10.745000    1.694200
C     0.710700   12.761700    6.964900
H     1.148400   13.011200    7.817400
H     0.022600   13.444200    6.764400
C     0.037700   11.391100    7.121500
H    -0.923200   11.522800    7.320700
H     0.444000   10.916000    7.889700
C     1.177300    9.046400    2.534100
H     0.937100    8.505500    3.338200
C     2.638900    9.462700    2.668300
H     2.901800    9.998000    1.867100
C     1.837700   12.736500    2.699200
N     2.238900   13.535300    1.970500
C    -0.436500   12.533300    3.975600
N    -1.446500   13.089600    3.928800
C     4.065300   11.016900    4.031300
H     4.782200   10.450700    3.649400
H     4.046400   11.870400    3.529900
C     4.352100   11.286000    5.471900
C     5.492900   10.717000    6.039900
H     6.087800   10.216600    5.494500
C     5.768400   10.869700    7.380500
H     6.539400   10.456300    7.751400
C     4.943200   11.612500    8.191400
H     5.148300   11.727400    9.112400
C     3.812500   12.187100    7.652700
H     3.232600   12.687400    8.213400
C     3.504300   12.051200    6.304500
C     2.318200   14.531700    5.428500
C     3.586000   15.069900    5.708900
H     4.287900   14.503700    6.010000
C     3.807400   16.422300    5.545100
H     4.667800   16.782500    5.727100
C     2.789800   17.256200    5.120400
H     2.952100   18.185300    5.013600
C     1.529500   16.734800    4.847000
H     0.830200   17.308000    4.557800
C     1.301800   15.388000    4.998500
H     0.440200   15.034900    4.809200
C     1.045200    8.851600    6.193600
C     0.647800    7.586100    5.752900
H    -0.128300    7.500600    5.211600
C     1.372300    6.453700    6.094200
H     1.081700    5.600200    5.793100
C     2.505600    6.558800    6.861800
H     3.011200    5.783800    7.078700
C     2.904300    7.794900    7.320400
H     3.685400    7.862200    7.855100
C     2.187300    8.944100    7.015200
H     2.465300    9.785000    7.355300
C    -1.444000    9.740100    5.131400
C    -2.306800    9.353300    6.173400
H    -2.006200    9.373000    7.072400
C    -3.604900    8.944100    5.878000
H    -4.197300    8.690500    6.575800
C    -4.017500    8.911900    4.564100
H    -4.908000    8.648400    4.362900
C    -3.167200    9.252400    3.542500
H    -3.474100    9.206200    2.646700
C    -1.846500    9.670100    3.799000
C    -1.114400   10.068100    2.534100
H    -1.294300    9.368800    1.857700
H    -1.532000   10.903400    2.203500
C     3.523200    8.226600    2.755700
H     4.471600    8.505500    2.816400
H     3.299300    7.720600    3.577100
C     3.342000    7.325400    1.543700
H     3.889200    6.508400    1.653400
H     3.651500    7.796300    0.729200
C     1.872900    6.938600    1.383100
H     1.762200    6.403300    0.559500
H     1.594900    6.378000    2.150000
C     0.982400    8.171900    1.309800
H     1.202500    8.690500    0.496600
H     0.035200    7.893000    1.251000
C     2.708100   14.590600    1.090400
C     1.527000   15.525400    0.789000
H     1.172300   15.906600    1.631400
H     0.801200   15.023700    0.342600
C     3.808700   15.378200    1.819700
H     3.452700   15.758000    2.662400
H     4.564600   14.778400    2.043100
C     3.265300   13.982400   -0.192100
H     4.021300   13.378300    0.022000
H     2.564700   13.454000   -0.650700
C     2.035200   16.647900   -0.125700
H     1.277900   17.264600   -0.345800
C     4.282900   16.502200    0.892400
H     4.999800   17.023500    1.354800
C     3.738200   15.106300   -1.093900
H     4.099200   14.722300   -1.942600
C     3.121900   17.424400    0.584700
H     2.764700   17.804100    1.427100
H     3.428800   18.171300    0.012600
C     4.843900   15.915000   -0.383500
H     5.611100   15.325000   -0.176000
H     5.162100   16.640900   -0.977600
C     2.576000   16.043900   -1.408200
H     2.884200   16.765700   -2.011700
H     1.859100   15.542200   -1.870300
C    -2.799900   13.640400    3.841100
C    -3.477900   13.116300    2.570600
H    -3.513100   12.126800    2.586900
H    -2.965900   13.398000    1.772800
C    -2.725700   15.166600    3.822300
H    -2.207500   15.470700    3.036400
H    -2.274100   15.494500    4.639500
C    -3.560900   13.162500    5.080200
H    -3.106800   13.479200    5.900000
H    -3.589800   12.173100    5.101600
C    -4.899200   13.690900    2.516200
H    -5.358300   13.361500    1.691100
C    -4.160900   15.724400    3.753100
H    -4.128200   16.723600    3.737400
C    -4.994800   13.731500    5.016100
H    -5.513000   13.430200    5.815100
C    -4.843900   15.221300    2.489500
H    -4.340700   15.525400    1.691100
H    -5.760800   15.589800    2.432900
C    -4.939500   15.259100    4.985300
H    -4.498000   15.595400    5.805700
H    -5.858900   15.626300    4.957000
C    -5.669000   13.222800    3.743700
H    -5.701700   12.233300    3.759400
H    -6.598500   13.561900    3.702800
B     6.555800    9.580400    0.877000
F     6.700400    8.627400    1.858000
F     5.744500   10.613300    1.272700
F     7.773300   10.038700    0.440700
F     5.952000    8.987600   -0.215300
B    -2.022600   18.727700    4.966400
F    -1.810000   17.713100    5.907800
F    -1.753400   19.906300    5.632500
F    -3.350800   18.772600    4.636700
F    -1.271700   18.497900    3.883500
Cl    5.661800    6.873900    5.425000
Cl    5.732500    4.642600    3.562300
C     6.481500    6.159400    4.020300
H     6.440000    6.791500    3.259600
H     7.433700    6.003900    4.240300

QM/MM links (counting starts at zero)
  1   33
  1   34
  2   45
  2   56
  3   21
  5   66
 13   78
 15   69
 18   81
 20  106
