129
QM: 53 at, MM: 76 at, Links: 4
H    -2.902000    8.342900    3.564800
Fe   -1.418900    7.202500    6.577200
P     0.275200    5.718700    6.383300
N    -1.657500    7.337400    4.664300
N    -2.763300    8.675600    6.583000
N    -2.700500    8.176500    4.353800
C    -4.109900    9.991900    5.075000
H    -4.384400   10.173000    4.206800
C     0.615800    5.782500    2.281000
H     0.178100    6.165400    1.554800
C    -1.046600    6.863900    3.613200
H    -1.401500    7.114700    2.791400
C     0.115700    5.995400    3.562500
C     0.785700    5.442500    4.660900
C    -4.119200   10.459200    7.421700
H    -4.418200   10.963200    8.145200
C     1.949400    4.685200    4.421700
H     2.414900    4.329300    5.143400
C    -4.580400   10.724700    6.132600
H    -5.208200   11.396300    5.990500
C    -3.201900    8.965600    5.348600
C     1.753800    5.013100    2.054700
H     2.066900    4.872400    1.189200
C    -3.218800    9.441400    7.605900
H    -2.907400    9.270200    8.466200
C     2.410800    4.457700    3.146500
H     3.166100    3.930500    3.015000
H     0.064100    8.342900    9.589500
P    -3.113000    5.718700    6.771100
N    -1.180300    7.337400    8.490100
N    -0.074500    8.675600    6.571400
N    -0.137300    8.176500    8.800500
C     1.272100    9.991900    8.079400
H     1.546600   10.173000    8.947600
C    -3.453600    5.782500   10.873400
H    -3.016000    6.165400   11.599500
C    -1.791200    6.863900    9.541100
H    -1.436300    7.114700   10.363000
C    -2.953500    5.995400    9.591900
C    -3.623600    5.442500    8.493500
C     1.281400   10.459200    5.732700
H     1.580300   10.963200    5.009200
C    -4.787200    4.685200    8.732700
H    -5.252700    4.329300    8.011000
C     1.742500   10.724700    7.021800
H     2.370400   11.396300    7.163900
C     0.364100    8.965600    7.805800
C    -4.591700    5.013100   11.099700
H    -4.904700    4.872400   11.965200
C     0.381000    9.441400    5.548500
H     0.069600    9.270200    4.688200
C    -5.248700    4.457700   10.007800
H    -6.003900    3.930500   10.139400
C     0.232200    2.888200    6.363000
H     0.388000    2.949400    5.448500
C     1.876800    6.328100    7.080700
C     2.292100    6.045500    8.371400
H     1.790200    5.470600    8.902900
C     0.100700    4.041800    7.107800
C     0.136200    1.629400    6.961300
H     0.212300    0.858800    6.445600
C     2.644100    7.191800    6.298300
H     2.374700    7.405900    5.435400
C    -0.157500    3.920700    8.486200
H    -0.278800    4.686500    9.000200
C     3.816200    7.732500    6.816600
H     4.337300    8.289100    6.282500
C     4.219000    7.460900    8.097800
H     4.996900    7.840100    8.437200
C    -0.072300    1.534000    8.321500
H    -0.104400    0.697300    8.729200
C    -0.233300    2.679000    9.087000
H    -0.391500    2.611700   10.002600
C     3.452500    6.611900    8.876600
H     3.716100    6.421100    9.747400
C    -3.070000    2.888200    6.791300
H    -3.225900    2.949400    7.705800
C    -4.714700    6.328100    6.073600
C    -5.129900    6.045500    4.782900
H    -4.628100    5.470600    4.251500
C    -2.938500    4.041800    6.046500
C    -2.974100    1.629400    6.193100
H    -3.050100    0.858800    6.708700
C    -5.481900    7.191800    6.856100
H    -5.212500    7.405900    7.719000
C    -2.680300    3.920700    4.668200
H    -2.559000    4.686500    4.154200
C    -6.654000    7.732500    6.337800
H    -7.175100    8.289100    6.871800
C    -7.056800    7.460900    5.056500
H    -7.834700    7.840100    4.717200
C    -2.765500    1.534000    4.832900
H    -2.733500    0.697300    4.425100
C    -2.604500    2.679000    4.067300
H    -2.446300    2.611700    3.151800
C    -6.290400    6.611900    4.277800
H    -6.553900    6.421100    3.407000
H    -2.178500   10.373600    2.131000
H     3.468200   11.682500   -0.526200
Cl    0.163100   13.419800    2.745800
Cl    1.690500    8.306600   -0.587700
O    -1.517100   11.004800    2.385700
O    -0.740000    8.790600    1.014200
O     2.503800   12.979200    1.023400
O     3.194800   10.823800   -0.477800
C     1.735600   12.036000    1.026000
C    -0.366500   10.992600    1.746900
C     0.496000   12.031200    1.799500
C     2.058200   10.821300    0.202600
C     1.249000    9.750900    0.228900
C     0.003300    9.747300    0.973400
Cl    4.044200    5.792100   -1.143900
O     4.471300    0.754800   -1.177800
O     3.388600    3.006900   -2.026800
C     4.240000    3.106000   -1.099400
C     4.807300    1.776200   -0.570900
C     4.672800    4.288900   -0.542700
Cl    6.309800    0.324400    1.143900
O     5.882700    5.361700    1.177800
O     6.965400    3.109600    2.026800
C     6.114000    3.010500    1.099400
C     5.546700    4.340300    0.570900
C     5.681200    1.827600    0.542700
C     3.362400    8.658500    2.680900
C     4.555600    8.153300    2.112600
H     4.947100    7.507400    2.707200
H     5.174300    8.873800    1.970500
H     4.358200    7.733700    1.270700
N     2.385700    9.005900    3.080800

QM/MM links (counting starts at zero)
  2   55
  2   58
 28   77
 28   80
