87
QM: 13 at, MM: 74 at, Links: 0
Fe    7.189500    0.067300    4.703500
C     8.993700    0.097400    4.028300
N    10.055500    0.086300    3.594400
N     7.125900    3.140900    4.483600
C     7.146200    2.007600    4.538000
C     5.276600    0.058000    5.026300
N     4.162800    0.080500    5.249000
C     7.227500   -1.865600    4.534700
N     7.293200   -3.005700    4.420900
N     6.416200    0.003500    1.722200
C     6.693500    0.038700    2.840600
N     7.558900    0.046900    6.313000
O     7.763300    0.019900    7.439600
Na    4.460900    5.854100    3.899900
O     6.663000    5.970200    4.791200
H     7.202600    6.429500    4.321900
H     6.866700    5.144100    4.770600
N     4.790100    7.199900    1.925100
N     4.483100    4.481600    1.883800
N     3.213500    7.506300    5.338000
N     3.499900    4.823300    5.861000
C     4.934100    8.522600    1.930000
H     4.996900    8.951800    2.751500
C     4.995400    9.299100    0.781900
H     5.087700   10.224000    0.838000
C     4.920700    8.686300   -0.419000
H     4.958300    9.192900   -1.197600
C     4.785400    7.294600   -0.501500
C     4.710400    6.582200   -1.735400
H     4.745700    7.053500   -2.537100
C     4.590200    5.256900   -1.761800
H     4.546100    4.818800   -2.581600
C     4.529300    4.500200   -0.560900
C     4.436600    3.104100   -0.555900
H     4.407300    2.635100   -1.357600
C     4.388100    2.431500    0.628500
H     4.336100    1.502300    0.641700
C     4.414700    3.150600    1.819500
H     4.382500    2.674900    2.617900
C     4.562900    5.143200    0.697800
C     4.699700    6.591000    0.722500
C     2.984900    8.788100    5.092300
H     3.070700    9.089000    4.216300
C     2.626800    9.701800    6.063900
H     2.445300   10.586800    5.836200
C     2.544900    9.292500    7.355500
H     2.338300    9.905400    8.023600
C     2.770100    7.947300    7.687100
C     2.668700    7.440600    9.015000
H     2.498900    8.024700    9.716000
C     2.818000    6.135300    9.265700
H     2.757300    5.832200   10.143300
C     3.068000    5.190500    8.216600
C     3.161600    3.807700    8.412900
H     3.057900    3.455900    9.269000
C     3.400300    2.975800    7.378600
H     3.449400    2.055400    7.505600
C     3.568100    3.531200    6.124900
H     3.740900    2.953700    5.415600
C     3.227900    5.652900    6.898600
C     3.081500    7.071200    6.629700
N     1.302300    6.438600   -0.478400
N     1.150300    3.788000   -1.019400
H     1.225900    4.385200   -1.634700
C     1.377100    7.726000   -0.178200
H     1.490500    8.330100   -0.877600
C     1.300300    8.228300    1.108500
H     1.348600    9.144300    1.255300
C     1.153500    7.383100    2.151100
H     1.099000    7.715000    3.018700
C     1.081500    5.989200    1.916800
C     0.946900    4.987000    2.931300
H     0.903000    5.250300    3.822100
C     0.882700    3.679400    2.634400
H     0.796200    3.057700    3.319000
C     0.945200    3.230300    1.276800
C     0.878000    1.885000    0.892400
H     0.763000    1.227900    1.537400
C     0.980600    1.533300   -0.425600
H     0.961600    0.637200   -0.673000
C     1.108400    2.509000   -1.370800
H     1.169000    2.274400   -2.269800
C     1.076800    4.192900    0.278800
C     1.155500    5.599800    0.562500
O    11.936400    0.982400    5.349600
H    11.358800    0.712400    4.797000
H    12.332800    0.232300    5.466700

QM/MM links (counting starts at zero)
