75
QM: 31 at, MM: 44 at, Links: 4
Fe    7.260400    7.260400    6.183800
S    11.918500    6.970000    7.050800
N     6.764900    7.458100    8.152700
N     5.194300    7.219400    6.118300
N     9.223200    7.215800    6.538800
C     7.603200    7.569600    9.163200
H     8.556400    7.495300    8.969000
C     7.184000    7.732300   10.471600
H     7.896800    7.765900   11.166700
C     5.870000    7.760600   10.748700
H     5.640000    7.801300   11.683700
C     4.980300    7.636800    9.706100
H     4.115500    7.613800    9.923800
C     5.456100    7.475800    8.419900
C     4.573600    7.348500    7.241200
C    10.310900    7.102700    6.731700
S     6.970000   11.918500    5.316800
N     7.458100    6.764900    4.214900
N     7.219400    5.194300    6.249300
N     7.215800    9.223200    5.828800
C     7.569600    7.603200    3.204400
H     7.495300    8.556400    3.398600
C     7.732300    7.184000    1.896000
H     7.765900    7.896800    1.200900
C     7.760600    5.870000    1.618900
H     7.801300    5.640000    0.683900
C     7.636800    4.980300    2.661500
H     7.613800    4.115500    2.443800
C     7.475800    5.456100    3.947700
C     7.348500    4.573600    5.126400
C     7.102700   10.310900    5.635900
Br    2.672200    6.276500    0.697000
C     3.080900    7.392700    7.390900
C     2.403500    6.358100    7.979600
H     2.905800    5.624100    8.304800
C     0.992200    6.434100    8.140400
H     0.604900    5.747900    8.520000
C     0.348400    7.431600    7.693900
H    -0.507600    7.560700    7.677800
C     1.020500    8.521100    7.118800
H     0.608400    9.272700    6.731700
C     2.401700    8.476900    6.946900
H     2.918200    9.202000    6.506600
C     4.485100    7.037200    4.907500
C     3.949300    5.816900    4.567400
H     4.041200    5.134200    5.147400
C     3.424000    5.574600    3.317000
H     3.112700    4.769900    3.005300
C     3.381500    6.598600    2.406700
C     3.867900    7.822500    2.718400
H     3.818400    8.567000    2.045600
C     4.423200    8.040000    3.973700
H     4.838900    8.903100    4.148100
Br    6.276500    2.672200   11.670600
C     7.392700    3.080900    4.976700
C     6.358100    2.403500    4.388000
H     5.624100    2.905800    4.062800
C     6.434100    0.992200    4.227200
H     5.747900    0.604900    3.847600
C     7.431600    0.348400    4.673700
H     7.560700   -0.507600    4.689800
C     8.521100    1.020500    5.248800
H     9.272700    0.608400    5.635900
C     8.476900    2.401700    5.420700
H     9.202000    2.918200    5.861000
C     7.037200    4.485100    7.460100
C     5.816900    3.949300    7.800200
H     5.134200    4.041200    7.220200
C     5.574600    3.424000    9.050600
H     4.769900    3.112700    9.362300
C     6.598600    3.381500    9.960900
C     7.822500    3.867900    9.649200
H     8.567000    3.818400   10.322000
C     8.040000    4.423200    8.393900
H     8.903100    4.838900    8.219500

QM/MM links (counting starts at zero)
  3   43
 14   32
 18   65
 29   54
