119
QM: 53 at, MM: 66 at, Links: 6
Fe   -1.187000    1.004200    6.877000
B    -0.628300    3.015800    9.279700
N     0.022300    2.911800    6.808800
C     1.083600    4.436400    8.036000
H     1.386600    4.944600    8.778300
C     1.460700    4.601300    6.734000
C     2.437200    5.576500    6.271400
N     3.233400    6.324000    5.963900
C     0.755100    3.635900    5.961200
N     0.192000    3.408300    8.074700
N    -2.654200    2.427200    7.822700
C    -3.053300    3.900800    9.437600
H    -2.923700    4.462000   10.193800
C    -4.237800    3.785000    8.711900
C    -5.467900    4.395200    9.005500
N    -6.469600    4.905400    9.265900
C    -3.923600    2.841200    7.689700
N    -2.134900    3.102200    8.905800
N    -0.464100    0.588600    8.742300
C    -0.071000   -0.543500    9.376700
H    -0.062300   -1.402900    8.972200
C     0.309800   -0.304100   10.662000
C     0.731100   -1.259700   11.612100
N     1.011800   -2.062200   12.393300
C     0.143000    1.081200   10.831000
N    -0.308300    1.548100    9.695200
B    -1.760900   -1.039900    4.459800
N    -2.379900   -0.900600    6.950100
C    -3.410000   -2.484100    5.770000
H    -3.692200   -3.015800    5.036000
C    -3.806300   -2.650900    7.085800
C    -4.729200   -3.592700    7.581700
N    -5.511500   -4.348100    7.944500
C    -3.123800   -1.620700    7.795000
N    -2.559700   -1.442200    5.700800
N     0.264100   -0.433600    5.941800
C     0.672300   -1.856200    4.290800
H     0.552000   -2.405600    3.523500
C     1.822500   -1.750200    5.038700
C     3.083600   -2.386000    4.761700
N     4.085000   -2.888300    4.509700
C     1.527800   -0.845700    6.083100
N    -0.233900   -1.059600    4.825500
N    -1.949100    1.401000    4.964000
C    -2.419300    2.521400    4.393300
H    -2.394900    3.382800    4.795000
C    -2.937900    2.254500    3.160600
C    -3.647700    3.143400    2.293600
N    -4.257700    3.861500    1.637100
C    -2.779400    0.873200    2.952900
N    -2.200900    0.408100    4.060900
H    -0.421600    3.728100   10.055300
H    -2.073300   -1.726700    3.351800
C     0.796200    3.469100    4.515200
C     0.820900    2.219200    3.878100
H     0.831900    1.432400    4.409900
C     0.827600    2.099500    2.542900
H     0.830100    1.236200    2.144000
C     0.830500    3.225800    1.739600
H     0.824400    3.131600    0.795000
C     0.841200    4.489400    2.304700
H     0.881100    5.266400    1.759000
C     0.793200    4.591500    3.684200
H     0.756300    5.454800    4.080300
C    -4.792800    2.439000    6.570600
C    -4.915400    1.112500    6.193900
H    -4.464400    0.433600    6.684200
C    -5.694100    0.775100    5.108000
H    -5.780400   -0.141300    4.867000
C    -6.344600    1.722800    4.365600
H    -6.852000    1.481400    3.601100
C    -6.237100    3.074700    4.775600
H    -6.702600    3.749700    4.296400
C    -5.471300    3.412200    5.850400
H    -5.401000    4.322600    6.110800
C     0.445500    1.848400   12.035900
C     1.568300    1.681600   12.695200
H     2.190000    1.028200   12.396000
C     1.875600    2.464500   13.858600
H     2.694500    2.311400   14.315700
C     1.025500    3.429900   14.329500
H     1.242800    3.959600   15.085800
C    -0.131600    3.592700   13.673000
H    -0.729700    4.259800   13.983300
C    -0.511200    2.819600   12.531800
H    -1.357100    2.935400   12.116300
C    -3.130700   -1.426500    9.238200
C    -3.371600   -0.157000    9.817100
H    -3.539400    0.596500    9.263100
C    -3.363500   -0.019600   11.196600
H    -3.554100    0.822100   11.595500
C    -3.073100   -1.122400   11.988800
H    -3.031600   -1.038000   12.936200
C    -2.845500   -2.348700   11.382200
H    -2.648700   -3.096300   11.933400
C    -2.889400   -2.527300   10.052600
H    -2.758500   -3.388700    9.675800
C     2.366200   -0.474800    7.216000
C     3.044700   -1.467700    7.936200
H     3.030700   -2.364400    7.623200
C     3.731600   -1.167500    9.096900
H     4.147000   -1.858200    9.598300
C     3.814200    0.133400    9.523500
H     4.300500    0.345300   10.312900
C     3.185900    1.140000    8.806000
H     3.238100    2.038700    9.105200
C     2.484300    0.837800    7.650900
H     2.079000    1.536400    7.152300
C    -3.205900    0.080400    1.819900
C    -2.875600    0.453300    0.570600
H    -2.332500    1.222400    0.443200
C    -3.319700   -0.278600   -0.570600
H    -3.109000    0.002000   -1.454300
C    -4.068100   -1.410800   -0.340700
H    -4.330500   -1.934700   -1.085900
C    -4.448500   -1.815000    0.886400
H    -5.008100   -2.576300    0.986100
C    -4.021400   -1.116500    1.997200
H    -4.255200   -1.412800    2.867000

QM/MM links (counting starts at zero)
  8   53
 16   64
 24   75
 33   86
 41   97
 49  108
