93
QM: 59 at, MM: 34 at, Links: 2
Fe    7.175600    1.833900    8.083100
S     2.555200    2.036600    9.248000
O     7.201400   -0.098000    7.749200
O     7.242600    2.270700    6.190700
N     9.244600    1.491800    8.376200
N     7.312500    1.814600   10.301500
H     6.838700    0.980300   10.582900
N     7.502400    3.960300    8.242000
N     5.122100    1.894000    8.320300
C     7.985000   -0.512600    6.763600
C     7.429900   -1.453600    5.845700
H     6.560900   -1.802200    6.005800
C     8.118500   -1.861900    4.746700
H     7.728000   -2.503800    4.165400
C     9.404100   -1.351000    4.450500
C    10.051800   -1.675500    3.231500
H     9.647800   -2.304300    2.645100
C    11.236500   -1.108400    2.882000
H    11.658800   -1.339800    2.063000
C    11.828600   -0.172700    3.752100
H    12.642200    0.250000    3.502800
C    11.247000    0.136100    4.953200
H    11.676600    0.758400    5.528100
C    10.018000   -0.449000    5.363000
C     9.314300   -0.077700    6.575400
C     9.960000    0.693400    7.643900
C     9.714300    2.063600    9.641100
H     9.736600    3.051900    9.586200
H    10.625400    1.737800    9.850200
C     8.727700    1.611900   10.714100
H     8.875200    0.652200   10.907500
H     8.898900    2.119300   11.546800
C     6.628300    2.914600   11.038700
H     6.809400    2.803200   12.005700
H     5.651800    2.819900   10.906400
C     7.034000    4.322500   10.632800
H     8.014100    4.414500   10.737900
H     6.604100    4.967900   11.248400
C     6.658500    4.684000    9.203800
H     5.708000    4.457100    9.045100
H     6.767800    5.658800    9.070600
C     8.332500    4.586000    7.465600
C     9.010900    3.882600    6.371900
C    10.322100    4.258000    5.897400
C    11.227700    5.042900    6.657500
H    10.945100    5.408100    7.487600
C    12.503600    5.283800    6.215500
H    13.087800    5.812200    6.746600
C    12.963300    4.766400    4.996100
H    13.847700    4.945700    4.699100
C    12.117900    3.997800    4.239300
H    12.422400    3.646500    3.410800
C    10.801600    3.719100    4.669600
C     9.968700    2.836400    3.933200
H    10.252100    2.533000    3.078600
C     8.775100    2.416900    4.426200
H     8.238100    1.825000    3.912600
C     8.316900    2.852200    5.702000
C     4.081600    1.964400    8.707700
C    11.413700    0.475200    7.887100
C    11.929000   -0.822700    7.925700
H    11.343600   -1.567700    7.857000
C    13.296000   -1.025700    8.064200
H    13.642200   -1.909100    8.110700
C    14.152100    0.054400    8.134600
H    15.087500   -0.087000    8.222500
C    13.648100    1.350700    8.077200
H    14.241500    2.091600    8.113400
C    12.286900    1.563000    7.967700
H    11.944700    2.449000    7.947300
C     8.519600    6.079300    7.541900
C     8.213500    6.852700    6.428900
H     7.892300    6.435300    5.638200
C     8.374000    8.233300    6.464600
H     8.137300    8.757100    5.708200
C     8.878400    8.848100    7.600300
H     9.012700    9.788500    7.616500
C     9.184900    8.079600    8.711000
H     9.526400    8.498500    9.492300
C     8.999100    6.708200    8.695200
H     9.197500    6.193700    9.468800
N    14.313100    4.181400   13.169200
C    14.835000    4.531500   14.116800
C    15.517100    5.015500   15.295100
H    15.524200    5.995800   15.288300
H    16.438500    4.682400   15.299800
H    15.050600    4.698100   16.096300
N    11.484200    4.828400   10.620200
C    12.596300    4.793800   10.383000
C    13.982600    4.738400   10.024200
H    14.064900    4.644300    9.052300
H    14.402500    3.968800   10.463200
H    14.427900    5.561800   10.312200

QM/MM links (counting starts at zero)
 25   59
 41   70
