125
QM: 27 at, MM: 98 at, Links: 2
Fe   -0.729000    3.893000    3.409600
Cl    0.930200    7.954200    3.553900
Cl    1.273400    1.776700    0.110200
Cl   -1.993300    1.960900   -0.334000
B     2.333800    3.889100    3.746500
O     1.840900    5.256600    3.383300
O     1.901100    2.921000    2.675300
O    -3.130600    3.489600    1.793500
N     0.479600    5.373400    3.310100
N     0.568400    2.967000    2.367600
N    -1.771200    3.360900    1.885800
C    -0.016000    6.553500    3.398700
C     0.209500    2.482600    1.222000
C    -1.193300    2.654100    0.967000
Cl   -2.388300    7.954200    3.265300
Cl   -2.731500    1.776700    6.709100
Cl    0.535300    1.960900    7.153300
B    -3.791900    3.889100    3.072800
O    -3.299000    5.256600    3.436000
O    -3.359200    2.921000    4.143900
O     1.672600    3.489600    5.025800
N    -1.937700    5.373400    3.509200
N    -2.026400    2.967000    4.451600
N     0.313100    3.360900    4.933500
C    -1.442100    6.553500    3.420500
C    -1.667600    2.482600    5.597300
C    -0.264800    2.654100    5.852300
C     3.880700    3.866800    3.852900
H     4.161500    4.493400    4.552500
H     4.167700    2.969400    4.124300
C     4.586400    4.236900    2.546300
H     4.201200    3.697700    1.824800
H     4.390500    5.176400    2.347200
C     6.087100    4.049500    2.528600
H     6.295600    3.133800    2.808200
H     6.490300    4.660200    3.179100
C     6.709400    4.301200    1.168800
H     6.277800    3.711200    0.516900
H     6.513700    5.224800    0.905600
C     8.189100    4.088400    1.089700
H     8.629500    4.712600    1.704800
H     8.389900    3.179900    1.396600
C     8.783100    4.275800   -0.297300
H     8.571200    5.181200   -0.606900
H     8.348400    3.646000   -0.909700
C    10.273600    4.076500   -0.383200
H    10.489600    3.175900   -0.061400
H    10.708700    4.716600    0.216900
C    10.855900    4.244000   -1.774400
H    10.426800    3.596000   -2.373100
H    10.629400    5.139900   -2.101700
C    12.360400    4.061400   -1.860300
H    12.785000    4.705500   -1.257500
H    12.584500    3.163200   -1.538400
C    12.945300    4.235300   -3.236400
H    12.703900    5.124800   -3.567800
H    12.536200    3.575400   -3.833800
C    14.444000    4.086800   -3.314200
H    14.687600    3.194200   -2.990900
H    14.856900    4.741200   -2.711300
C    15.021500    4.274200   -4.691700
H    14.762400    5.159700   -5.021700
H    14.622100    3.607900   -5.290400
C    16.528700    4.154300   -4.777600
H    16.929600    4.828600   -4.189800
H    16.794200    3.273600   -4.439300
C    17.096500    4.327400   -6.170100
H    16.704500    3.642900   -6.751100
H    16.810700    5.200200   -6.512400
C    18.600300    4.238500   -6.284600
H    18.892000    3.373600   -5.930000
H    19.001900    4.939700   -5.729500
C    19.119600    4.387000   -7.719400
H    20.091400    4.375100   -7.715300
H    18.810600    5.227200   -8.091700
H    18.788400    3.652400   -8.260900
C    -5.338800    3.866800    2.966400
H    -5.619600    4.493400    2.266700
H    -5.625800    2.969400    2.695000
C    -6.044500    4.236900    4.273000
H    -5.659200    3.697700    4.994400
H    -5.848500    5.176400    4.472100
C    -7.545200    4.049500    4.290700
H    -7.753600    3.133800    4.011100
H    -7.948300    4.660200    3.640100
C    -8.167500    4.301200    5.650400
H    -7.735900    3.711200    6.302400
H    -7.971700    5.224800    5.913700
C    -9.647200    4.088400    5.729500
H   -10.087500    4.712600    5.114400
H    -9.847900    3.179900    5.422700
C   -10.241100    4.275800    7.116600
H   -10.029200    5.181200    7.426200
H    -9.806500    3.646000    7.729000
C   -11.731700    4.076500    7.202500
H   -11.947700    3.175900    6.880600
H   -12.166700    4.716600    6.602400
C   -12.314000    4.244000    8.593600
H   -11.884900    3.596000    9.192400
H   -12.087400    5.139900    8.921000
C   -13.818500    4.061400    8.679600
H   -14.243000    4.705500    8.076700
H   -14.042500    3.163200    8.357700
C   -14.403400    4.235300   10.055700
H   -14.162000    5.124800   10.387100
H   -13.994200    3.575400   10.653100
C   -15.902100    4.086800   10.133400
H   -16.145600    3.194200    9.810200
H   -16.315000    4.741200    9.530600
C   -16.479600    4.274200   11.510900
H   -16.220400    5.159700   11.841000
H   -16.080200    3.607900   12.109600
C   -17.986800    4.154300   11.596800
H   -18.387600    4.828600   11.009000
H   -18.252300    3.273600   11.258600
C   -18.554500    4.327400   12.989300
H   -18.162600    3.642900   13.570300
H   -18.268800    5.200200   13.331700
C   -20.058400    4.238500   13.103900
H   -20.350100    3.373600   12.749300
H   -20.460000    4.939700   12.548800
C   -20.577700    4.387000   14.538700
H   -21.549400    4.375100   14.534600
H   -20.268700    5.227200   14.911000
H   -20.246400    3.652400   15.080100

QM/MM links (counting starts at zero)
  4   27
 17   76
