79
QM: 32 at, MM: 47 at, Links: 7
Fe   12.237100    3.848300   12.211800
N    13.304500    3.733300   13.749600
N    11.011400    3.875600   10.768000
N    11.300600    2.427100   13.225300
N    12.989500    2.440800   11.036100
N    11.140500    5.331900   12.659900
N    13.678100    5.105700   11.799000
N    13.006700    2.883300   14.788400
N    11.068200    2.947600    9.758500
N    10.185000    5.686700   11.832300
N    14.569900    5.300700   12.732300
O    12.538400    1.232100    9.202900
O    11.367700    1.263300   15.152300
C    14.361600    4.520900   13.823900
C    10.074800    4.799700   10.815000
C    11.927200    2.236100   14.385400
C    10.362300    0.748600   14.371700
C    10.319300    1.440700   13.176400
C    13.981100    1.471900   10.916700
C    13.716000    0.742800    9.784000
C    12.166500    2.249700   10.016800
C    14.619800    7.144900   10.816900
C    14.802300    7.967600    9.678300
C    14.213500    7.601100    8.494700
C    13.452600    6.505500    8.375300
C    13.254600    5.661300    9.478800
C    13.862300    6.000600   10.697600
H    15.005500    7.380800   11.664100
H    15.320500    8.774700    9.723300
H    14.368500    8.131400    7.710200
H    13.041100    6.293000    7.534100
H    12.703700    4.877600    9.424000
C    15.287800    4.630100   15.015400
C    15.945500    5.975200   15.072100
C    16.339700    3.548100   14.968400
C     8.959200    4.910800    9.785900
C     7.826400    5.762700   10.290700
C     9.498100    5.476100    8.467300
C     9.510100   -0.298300   14.704300
C     8.621800   -0.606300   13.732000
C     8.544300    0.021400   12.511200
C     9.406800    1.083900   12.204000
C    15.086400    1.200900   11.701200
C    15.892100    0.140400   11.255200
C    15.566700   -0.549800   10.116500
C    14.495900   -0.276800    9.296800
C    11.512300    5.965500   14.972300
C    11.903100    6.922700   15.909400
C    12.218200    8.172300   15.533800
C    12.133800    8.552500   14.195600
C    11.736100    7.612800   13.250700
C    11.445200    6.324200   13.634200
H    14.774800    4.507200   15.817500
H    15.272300    6.657500   15.138600
H    16.536000    6.037600   15.827300
H    16.446400    6.098000   14.262200
H    15.912700    2.688400   14.958600
H    16.842400    3.665100   14.158500
H    16.931900    3.602700   15.721600
H     8.616600    4.033500    9.607900
H     7.113700    5.829000    9.650900
H     7.492400    5.376700   11.102600
H     8.175900    6.638000   10.470700
H     8.802500    5.530700    7.808000
H     9.837200    6.355400    8.649200
H    10.209100    4.920500    8.134700
H     9.549700   -0.742800   15.553400
H     7.989900   -1.306200   13.917800
H     7.898700   -0.278800   11.867500
H     9.365500    1.542100   11.362800
H    15.298100    1.715600   12.483800
H    16.654800   -0.136500   11.765800
H    16.162400   -1.251600    9.844600
H    14.294400   -0.762300    8.492700
H    11.281600    5.072600   15.240400
H    11.954800    6.684800   16.838700
H    12.505700    8.813700   16.187300
H    12.314600    9.457000   13.929600
H    11.689700    7.850600   12.321400

QM/MM links (counting starts at zero)
  5   51
 13   32
 14   35
 16   38
 17   41
 18   42
 19   45
