43
QM: 43 at, MM: 0 at, Links: 0
Fe    2.769600    1.632900   -0.988200
O     3.476700    2.718800    0.436200
O     3.065800    2.834000   -2.445800
O     0.884000    1.938200   -0.741200
O     6.444000    1.226600    4.836300
O     5.944700    2.110900   -7.091400
O    -2.236200    2.718800   -5.237900
N     2.607900   -0.062900    0.417100
N     4.889700    0.910400   -1.245400
N     2.261500    0.066800   -2.500300
C     4.230100    2.347300    1.467900
C     5.292900    3.133300    1.912400
C     6.047200    2.799400    3.026200
C     5.759900    1.645000    3.716300
C     4.729900    0.835100    3.276900
C     3.957200    1.159800    2.176000
C     2.727200    0.366900    1.829700
C     7.164200    2.202200    5.548600
C     3.786400    2.635900   -3.548300
C     3.296900    3.016700   -4.799100
C     4.034100    2.837800   -5.941400
C     5.287600    2.240600   -5.887100
C     5.801500    1.858400   -4.664700
C     5.064500    2.055600   -3.491400
C     5.676600    1.783900   -2.142400
C     7.206300    1.500700   -7.070700
C     0.109200    2.163100   -1.822000
C     0.085900    1.235800   -2.871200
C    -0.701200    1.468400   -3.990200
C    -1.496100    2.604500   -4.072900
C    -1.506900    3.507200   -3.031400
C    -0.696500    3.294500   -1.912400
C     0.800300   -0.069900   -2.692900
C    -3.161000    3.743600   -5.336600
C     3.258300   -1.374000    0.111100
C     4.762900   -1.256600   -0.116300
C     5.145800   -0.546500   -1.405900
C     4.416300   -1.147600   -2.594700
C     2.908100   -1.278100   -2.416300
C     2.584500   -1.989600   -1.098300
H     1.828400   -0.214900    0.325600
H     5.168500    1.151400   -0.449700
H     2.537200    0.399200   -3.140000

QM/MM links (counting starts at zero)
