107
QM: 21 at, MM: 86 at, Links: 10
Fe   -2.089000    0.000000    7.353000
N    -3.107700    1.581100    7.438300
N    -1.549100   -0.074800    9.158900
O    -3.128300    2.428800    8.506000
O    -1.713300    0.968700   10.045700
B    -3.004900    1.756300    9.870700
C    -3.625900    2.001500    6.305900
C    -0.762300   -1.056400    9.492700
N    -0.416500    1.139100    7.005900
H    -0.073500    0.468600    6.416200
H     0.177900    0.914600    7.644200
N    -1.070300   -1.581100    7.267700
N    -2.628900    0.074800    5.547100
N    -3.761500   -1.139100    7.700100
C    -3.415700    1.056400    5.213300
C    -0.552200   -2.001500    8.400100
O    -1.049700   -2.428800    6.200100
O    -2.464700   -0.968700    4.660300
H    -4.104500   -0.468600    8.289800
H    -4.355900   -0.914600    7.061800
B    -1.173200   -1.756300    4.835300
C    -4.302600    3.316800    6.163300
C    -0.130100   -1.198100   10.841300
C    -0.383500    2.543000    6.786800
C     0.947100    3.200600    6.466200
C     1.901200    3.166200    7.466200
C     3.220200    3.900600    7.172100
C    -2.784300    5.316300   11.501600
C    -2.841900    4.301300   10.561900
C    -2.887100    2.971200   10.922200
C    -2.860100    2.709300   12.278100
C    -2.777600    3.701700   13.228100
C    -2.735300    5.009100   12.833900
C    -5.548100    1.097700    9.591300
C    -4.284300    0.822100   10.153000
C    -4.227400   -0.276600   11.011900
C    -5.339700   -1.023900   11.308900
C    -6.558600   -0.727500   10.745700
C    -6.651500    0.336700    9.876600
H    -4.329500    3.753900    7.017700
H    -5.197200    3.189800    5.841200
H    -3.812900    3.860200    5.542700
H    -0.405600   -0.474500   11.408900
H    -0.403800   -2.032000   11.231000
H     0.825200   -1.186300   10.748600
H    -0.725700    2.963300    7.579500
H    -0.998500    2.734000    6.073600
H     0.798900    4.119100    6.228000
H     1.320800    2.756600    5.700100
H     2.099700    2.247600    7.664800
H     1.511800    3.560900    8.248600
H     3.823600    3.839600    7.916300
H     3.623400    3.497900    6.400100
H     3.031100    4.824100    6.989800
H    -2.755900    6.234800   11.225100
H    -2.862100    4.521800    9.628000
H    -2.888500    1.790800   12.554500
H    -2.757400    3.481200   14.161900
H    -2.686600    5.707100   13.491300
H    -5.619600    1.842000    8.989800
H    -3.380200   -0.493200   11.407500
H    -5.268200   -1.768200   11.910400
H    -7.333400   -1.254300   10.953000
H    -7.498700    0.554300    9.481000
C    -3.794500   -2.543000    7.919200
C    -4.047900    1.198100    3.864700
C     0.124600   -3.316800    8.542700
C    -5.125200   -3.200600    8.239800
H    -3.452300   -2.963300    7.126500
H    -3.179500   -2.734000    8.632400
H    -3.772500    0.474500    3.297100
H    -3.774300    2.032000    3.475000
H    -5.003300    1.186300    3.957400
H     0.151500   -3.753900    7.688300
H     1.019200   -3.189800    8.864800
H    -0.365100   -3.860200    9.163300
C    -1.290900   -2.971200    3.783900
C     0.106200   -0.822100    4.553000
C    -6.079200   -3.166200    7.239800
H    -4.977000   -4.119100    8.478000
H    -5.498800   -2.756600    9.006000
C    -1.336100   -4.301300    4.144200
C    -1.317900   -2.709300    2.428000
C     1.370100   -1.097700    5.114800
C     0.049400    0.276600    3.694200
C    -7.398200   -3.900600    7.533900
H    -6.277700   -2.247600    7.041200
H    -5.689800   -3.560900    6.457400
C    -1.393700   -5.316300    3.204400
H    -1.315900   -4.521800    5.078000
C    -1.400400   -3.701700    1.478000
H    -1.289500   -1.790800    2.151500
C     2.473500   -0.336700    4.829500
H     1.441600   -1.842000    5.716200
C     1.161700    1.023900    3.397100
H    -0.797900    0.493200    3.298600
H    -8.001600   -3.839600    6.789800
H    -7.801400   -3.497900    8.306000
H    -7.209100   -4.824000    7.716200
C    -1.442800   -5.009100    1.872100
H    -1.422100   -6.234800    3.480900
H    -1.420600   -3.481200    0.544100
C     2.380500    0.727500    3.960300
H     3.320700   -0.554300    5.225000
H     1.090200    1.768200    2.795600
H    -1.491400   -5.707100    1.214700
H     3.155300    1.254300    3.753000

QM/MM links (counting starts at zero)
  5   29
  5   34
  6   21
  7   22
  8   23
 13   64
 14   65
 15   66
 20   76
 20   77
