85
QM: 54 at, MM: 31 at, Links: 4
Fe    8.911000   10.929700    3.655800
S     8.988000    8.592900    2.507400
S     9.539800   12.718200    5.518300
S     6.748300   10.898800    4.949000
S    10.948000   11.678500    2.339200
N     9.870300    9.429600    5.071300
H    10.558800    9.085500    4.672800
N     7.858500   12.165900    2.491200
C     8.393800    7.824300    3.989300
C     8.906700    8.345800    5.185800
C     8.425900    7.873100    6.392900
H     8.751300    8.232100    7.209700
C     7.464900    6.869700    6.405100
H     7.134500    6.548600    7.236400
C     6.986000    6.336400    5.235900
H     6.336800    5.642700    5.260900
C     7.449200    6.809400    4.015100
H     7.121700    6.440600    3.203800
C    10.388000    9.949600    6.367900
H    10.726200    9.198000    6.915600
H     9.654200   10.388800    6.866400
C    11.236500   12.248600    5.679800
C    11.497400   10.938300    6.123600
C    12.815000   10.559900    6.333400
H    13.003800    9.687500    6.659500
C    13.859500   11.430900    6.075100
H    14.757500   11.157100    6.223400
C    13.590400   12.700700    5.599200
H    14.306900   13.293000    5.401600
C    12.287500   13.113400    5.409400
H    12.109100   13.990600    5.092100
C     6.494000   12.583200    4.437800
C     7.052600   13.018000    3.197800
C     6.742600   14.346600    2.823800
H     7.047000   14.674800    1.985300
C     6.006800   15.181100    3.649500
H     5.806600   16.063700    3.361400
C     5.557800   14.753100    4.885100
H     5.089200   15.346500    5.460700
C     5.802800   13.445400    5.269400
H     5.492700   13.137700    6.113600
C     8.332500   12.687400    1.202000
H     8.939900   13.451800    1.366200
H     7.558200   13.022400    0.683800
C    10.288600   11.113400    0.790900
C     9.057600   11.650100    0.385800
C     8.525500   11.223500   -0.825900
H     7.693200   11.575300   -1.118600
C     9.189300   10.291600   -1.616300
H     8.816400   10.019100   -2.445400
C    10.389900    9.767300   -1.193600
H    10.839800    9.126000   -1.730700
C    10.945900   10.167200    0.010400
H    11.771000    9.798000    0.301100
C     7.679700    8.318300    1.298600
H     7.936500    8.718300    0.441800
H     7.541700    7.355200    1.180500
H     6.849400    8.730500    1.616700
C     9.617800   14.350200    4.761400
H     8.709000   14.693800    4.632000
H    10.117400   14.957600    5.345400
H    10.069700   14.287000    3.894700
C     5.523900   10.029300    3.935900
H     5.563800    9.069000    4.128300
H     4.628400   10.367900    4.143700
H     5.717900   10.180600    2.987200
C    12.388800   10.635700    2.591900
H    12.824500   10.879200    3.436000
H    12.110300    9.697000    2.627000
H    13.018000   10.762300    1.851700
S    10.037000    4.702900   -3.880500
S     8.550500    4.240500   -1.551300
F    11.197400    6.833400   -4.750000
F    10.138100    7.108900   -2.919200
F    12.005100    6.097500   -2.918900
F     9.913400    5.955900   -0.131600
F     8.417800    4.882600    0.950500
F    10.226100    3.901900    0.425500
N     9.826500    4.099100   -2.460400
O     8.855500    5.076600   -4.581300
O    11.007300    3.922300   -4.580100
O     7.637600    5.268400   -1.884300
O     8.034800    2.954300   -1.231900
C    10.900600    6.272100   -3.592000
C     9.349700    4.778800    0.007300

QM/MM links (counting starts at zero)
  1   54
  2   58
  3   62
  4   66
