60
QM: 41 at, MM: 19 at, Links: 0
Fe    5.030700    6.799800    3.759200
O     6.532500    5.912600    2.561500
O     6.146400    6.272900    5.438900
N     3.944000    4.981900    3.946400
N     1.243300    2.911300    6.709500
N     3.844700   -1.511500   -1.240500
N     1.446600   -3.783900    1.565300
C     2.642600    1.749600    3.667500
C     3.296000    1.805800    2.400600
C     3.321300    0.727700    1.575100
C     2.702400   -0.501100    1.942800
C     2.039300   -0.552900    3.201400
C     2.011100    0.525100    4.029100
C     2.621100    2.869400    4.532900
C     3.331900    4.044700    4.211100
C     1.866200    2.890700    5.743400
C     2.725200   -1.614000    1.077400
C     3.360100   -1.559100   -0.197000
C     2.032700   -2.814500    1.361600
C     6.722600    4.558600    2.146500
C     6.142800    6.936400    6.702000
O     3.529000    7.687100    4.956900
C     3.338900    9.041100    5.371900
O     3.915100    7.326700    2.079600
C     3.918700    6.663300    0.816500
N     6.117500    8.617800    3.572000
C     6.729600    9.555000    3.307400
C     7.440400   10.730200    2.985600
C     7.418900   11.850000    3.851000
C     6.765500   11.793900    5.117800
C     6.740200   12.872000    5.943300
C     7.359100   14.100800    5.575700
C     8.022200   14.152600    4.317100
C     8.050400   13.074600    3.489300
C     7.336300   15.213700    6.441100
C     6.701400   15.158800    7.715500
N     6.216800   15.111200    8.759000
C     8.028800   16.414200    6.156900
N     8.614900   17.383600    5.953100
C     8.195300   10.709000    1.775100
N     8.818200   10.688400    0.809000
N     9.184500    2.097400    3.984000
N    11.432000    4.513800    1.206700
C    11.173000    1.189500   -0.393200
C    10.468000    1.121100    0.868400
C     9.832400   -0.127800    1.212700
C    10.404900    2.201500    1.711200
C    10.991400    3.475400    1.413500
C     9.722200    2.134500    2.972800
C    11.213600    0.127800   -1.212700
C    10.578000   -1.121100   -0.868400
C     9.873000   -1.189500    0.393200
C    10.641100   -2.201500   -1.711200
C    10.054600   -3.475400   -1.413500
N     9.614000   -4.513800   -1.206700
C    11.323800   -2.134500   -2.972800
N    11.861500   -2.097400   -3.984000
N    11.611100    6.405900    4.968200
C     9.328700    5.292000    5.424600
C    10.609700    5.908700    5.155400

QM/MM links (counting starts at zero)
