128
QM: 45 at, MM: 83 at, Links: 2
Fe    5.603200    9.996400    4.206900
F     2.368300    7.047300    9.358500
F     8.590600    4.111400    2.699700
O     5.905300    9.385300    5.933100
O     5.221100    8.293400    3.529500
N     3.725800   10.139200    4.436100
N     5.203900   10.731600    2.359700
H     5.294600   11.725800    2.417500
N     7.476900    9.838400    3.959100
N     6.066000   11.847700    4.867500
C     3.027400   10.804000    3.335800
H     3.026800   11.785400    3.467600
H     2.089200   10.491700    3.280900
C     3.770300   10.443800    2.092900
H     3.644000    9.486100    1.880200
H     3.446700   10.983700    1.328600
C     3.028400    9.606300    5.370200
H     2.081900    9.669500    5.328500
C     3.632900    8.911700    6.485100
C     2.722800    8.297100    7.399000
H     1.783600    8.340000    7.260600
C     3.247300    7.650800    8.470100
C     4.590000    7.600700    8.742500
H     4.908300    7.159100    9.519700
C     5.456500    8.193100    7.885200
H     6.388100    8.170400    8.067300
C     4.987200    8.841200    6.724600
C     6.136900    7.344400    3.390600
C     7.488700    7.480000    3.471000
C     8.305200    6.384400    3.238900
H     9.248800    6.476900    3.301700
C     7.761100    5.168000    2.922700
C     6.417300    5.004600    2.825800
H     6.053900    4.157500    2.596600
C     5.596400    6.063100    3.058000
H     4.655800    5.949900    2.997300
C     8.134500    8.761300    3.737900
H     9.084200    8.797200    3.748200
C     8.206500   11.075100    4.151000
H     8.205900   11.612300    3.318800
H     9.143400   10.890200    4.409000
C     7.497800   11.803100    5.242200
H     7.613300   11.330300    6.103900
H     7.857400   12.721200    5.335000
H     5.916100   12.367600    4.185700
C     6.058300   10.293400    1.263000
H     5.966300    9.312600    1.165900
H     6.999600   10.482800    1.503200
C     5.763000   10.937700   -0.064000
H     4.864900   10.677400   -0.359500
H     6.422800   10.640800   -0.724000
H     5.806900   11.911500    0.029100
C     5.203300   12.389900    5.925800
H     5.220600   11.768800    6.696400
H     4.273000   12.423000    5.589300
C     5.596600   13.791900    6.417500
H     6.431200   13.737300    6.928500
H     4.885900   14.148900    6.990500
H     5.723600   14.385100    5.647600
O     6.124500   13.459500    2.493200
C     5.644000   14.495700    1.999600
H     4.850700   14.848300    2.385200
N     6.156100   15.112300    1.003500
C     5.590800   16.345300    0.477100
H     4.671000   16.447200    0.800000
H     5.592000   16.314700   -0.502000
H     6.128800   17.107100    0.780600
C     7.388100   14.649900    0.425900
H     8.051200   15.370200    0.450700
H     7.232300   14.379600   -0.502800
H     7.720300   13.882200    0.937800
O     2.594600   14.051900    2.405400
C    -0.142400   14.551500    2.877000
H    -0.459100   13.930400    3.565500
H    -0.902100   15.059800    2.521800
H     0.509000   15.169700    3.268700
N     0.504800   13.778900    1.765700
C    -0.447400   13.182800    0.875500
H     0.025600   12.663400    0.192100
H    -0.974800   13.887200    0.442500
H    -1.043200   12.592800    1.381100
C     1.732000   13.712100    1.699900
H     2.041800   13.291700    0.906500
C    15.454300   12.267300    6.996900
H    16.052200   12.782300    7.526300
C    14.692400   11.301700    7.572700
H    14.766000   11.128900    8.504800
C    13.804700   10.568200    6.799500
H    13.250100    9.924600    7.224600
C    13.695100   10.740900    5.412200
C    11.940000   10.692600    3.350400
C    11.336800   10.090900    2.208000
H    11.457900    9.160300    2.063700
C    10.575500   10.822600    1.292300
H    10.211700   10.393100    0.526800
C    10.349800   12.172600    1.504300
H     9.848700   12.682200    0.878900
C    15.920500    7.268300    2.533400
H    16.586700    6.719600    2.136600
C    15.592100    7.084500    3.833000
H    16.050100    6.438400    4.356800
C    14.565200    7.866300    4.399600
H    14.329100    7.728500    5.309500
C    13.877800    8.843000    3.653800
C    15.364700   12.492000    5.693700
H    15.882700   13.184000    5.300800
C    14.529000   11.734400    4.896700
H    14.519800   11.896600    3.961300
C    11.680700    8.965600    5.225800
C    11.452300    7.589600    5.112400
H    12.030700    7.082600    4.555000
C    10.424900    6.924800    5.768600
H    10.307700    5.990600    5.637000
C     9.577900    7.608100    6.609400
H     8.870900    7.163600    7.063100
C     9.786400    8.937700    6.768400
H     9.216700    9.424700    7.352500
C    10.790400    9.606300    6.117700
H    10.891600   10.537700    6.272100
C    11.631400   12.033400    3.509400
H    11.972900   12.481400    4.274300
C    10.859300   12.761300    2.628400
H    10.679900   13.677200    2.803400
C    14.292600    8.997200    2.354200
H    13.868100    9.655900    1.818100
C    15.308600    8.230200    1.785800
H    15.571600    8.375300    0.883800
B    12.774700    9.821700    4.419700

QM/MM links (counting starts at zero)
  6   45
  9   52
