88
QM: 44 at, MM: 44 at, Links: 4
C    -0.034800   10.812300    3.918100
C     4.024800   10.056400    4.816400
C     3.912000    8.991100    5.731200
C     5.008300    8.423700    6.339500
H     4.889300    7.766900    6.987500
C     6.305400    8.829600    5.993100
H     7.056000    8.431700    6.374300
C     6.420100    9.818000    5.086500
H     7.274400   10.089700    4.839600
C     5.355300   10.444400    4.509700
H     5.503400   11.134900    3.904800
C     2.966500   11.928800    3.647900
H     2.543900   11.835500    2.779400
H     3.901400   12.134000    3.490500
C     2.306200   13.181600    4.380500
C     2.499600   14.418200    3.762300
H     3.118600   14.478100    3.071100
C     1.829000   15.525900    4.125200
H     1.987300   16.335900    3.696000
C     0.916200   15.442000    5.131300
H     0.423800   16.190200    5.381500
C     0.730600   14.242500    5.772700
H     0.103900   14.193100    6.457200
C     1.440900   13.105100    5.437900
C     2.200500    6.792200    5.436200
H     2.595700    6.182200    6.079300
H     1.267300    6.545600    5.340100
C     2.895600    6.577100    4.080500
C     3.976800    5.710100    4.057300
H     4.217600    5.255900    4.831300
C     4.682500    5.517000    2.928600
H     5.423900    4.956200    2.923600
C     4.288200    6.163000    1.783300
H     4.724700    5.984800    0.981200
C     3.231700    7.090100    1.809900
H     3.010100    7.568800    1.044200
C     2.531100    7.284700    2.971700
Fe    1.111400    9.881700    4.802300
H    -0.113100    9.130100    5.552200
N     2.899900   10.639500    4.314200
O    -0.903800   11.392700    3.372800
P     1.125900    8.449600    3.095300
P     1.170300   11.513000    6.292600
S     2.276200    8.493200    6.138300
C    -0.282300   11.827600    7.345500
C    -1.511100   11.238000    7.045500
H    -1.577300   10.652800    6.324600
C    -2.639800   11.516100    7.814600
H    -3.451200   11.113200    7.604100
C    -2.565300   12.374100    8.870300
H    -3.327600   12.578800    9.362600
C    -1.353400   12.933500    9.205100
H    -1.291100   13.497900    9.941000
C    -0.230200   12.658500    8.447700
H     0.581900   13.043300    8.688000
C     2.505200   11.470300    7.544400
C     2.481200   10.511700    8.535500
H     1.759900    9.925800    8.580300
C     3.490500   10.397200    9.458700
H     3.453100    9.728800   10.105100
C     4.537400   11.248100    9.430500
H     5.218000   11.187900   10.060300
C     4.570100   12.199500    8.454300
H     5.286300   12.791900    8.424500
C     3.582600   12.308500    7.519600
H     3.644400   12.959800    6.859900
C    -0.296400    7.302800    2.877200
C    -0.182000    6.177900    2.104900
H     0.636100    5.957700    1.722000
C    -1.291900    5.361200    1.894400
H    -1.208200    4.597400    1.370700
C    -2.512900    5.673600    2.452900
H    -3.247200    5.124000    2.303800
C    -2.640800    6.787500    3.225300
H    -3.462700    7.006300    3.603200
C    -1.512500    7.608800    3.444000
H    -1.592200    8.365900    3.979400
C     1.156600    9.317300    1.490000
C     2.272000   10.075800    1.155200
H     3.013900   10.082300    1.715400
C     2.277300   10.823400   -0.016600
H     3.023800   11.331000   -0.240300
C     1.167300   10.813900   -0.853600
H     1.171800   11.313600   -1.637500
C     0.051900   10.054200   -0.518800
H    -0.690100   10.047600   -1.079000
C     0.046600    9.306500    0.653000
H    -0.699900    8.799000    0.876800

QM/MM links (counting starts at zero)
 41   66
 41   77
 42   44
 42   55
