96
QM: 81 at, MM: 15 at, Links: 0
Fe   13.055600    4.937000    7.767600
O     6.491300    6.305300    6.518500
N    11.166300    5.223300    7.410900
N    12.619600    7.741200    7.155500
N    12.816600    5.887900    9.466000
N    13.421000    6.664000    6.909300
N    12.140100    7.070800    9.486100
N    10.579100    6.428000    7.653700
N     7.831300    4.495600    6.416600
H     7.866000    3.638400    6.219100
C    10.218500    4.418600    6.938100
H    10.348700    3.512600    6.685300
C     9.006400    5.102900    6.868700
C    13.040600    8.800700    6.437300
H    12.648000    9.665900    6.439300
C     9.263700    6.373700    7.334600
H     8.634900    7.081100    7.416700
C     5.525600    4.270500    5.734500
C    12.158900    7.588200   10.729000
H    11.762400    8.409200   10.995700
C    14.135000    8.414600    5.701600
H    14.643800    8.945600    5.099800
C    13.237900    5.683500   10.713500
H    13.737100    4.926700   10.996200
C     6.642800    5.127600    6.259700
C    14.336100    7.074700    6.031200
H    15.029500    6.529300    5.678500
C     4.354700    4.920200    5.369700
H     4.275900    5.859500    5.484800
C    12.849200    6.726200   11.545600
H    13.022900    6.822200   12.474600
C     3.405400    2.825900    4.676400
H     2.684700    2.337200    4.296700
C     4.549300    2.167300    5.063500
H     4.610900    1.224200    4.970200
C     5.612800    2.886200    5.590800
H     6.404500    2.432100    5.855300
C     3.298000    4.192500    4.836200
H     2.498700    4.638000    4.580300
B    11.480000    7.563500    8.177900
H    10.913800    8.501500    8.329900
O    19.619900    3.568700    9.016600
N    14.944900    4.650700    8.124300
N    13.491600    2.132800    8.379700
N    13.294600    3.986100    6.069100
N    12.690200    3.210000    8.625900
N    13.971100    2.803200    6.049100
N    15.532000    3.446000    7.881400
N    18.279900    5.378400    9.118500
H    18.245200    6.235600    9.316000
C    15.892700    5.455400    8.597000
H    15.762500    6.361400    8.849900
C    17.104800    4.771100    8.666400
C    13.070600    1.073300    9.097800
H    13.463200    0.208100    9.095800
C    16.847500    3.500300    8.200500
H    17.476300    2.792900    8.118500
C    20.585600    5.603500    9.800700
C    13.952300    2.285800    4.806100
H    14.348800    1.464800    4.539500
C    11.976200    1.459400    9.833600
H    11.467400    0.928400   10.435400
C    12.873300    4.190500    4.821600
H    12.374100    4.947300    4.538900
C    19.468400    4.746400    9.275400
C    11.775100    2.799300    9.503900
H    11.081700    3.344700    9.856600
C    21.756500    4.953800   10.165400
H    21.835300    4.014500   10.050300
C    13.262000    3.147800    3.989600
H    13.088300    3.051800    3.060600
C    22.705800    7.048100   10.858800
H    23.426500    7.536800   11.238400
C    21.561900    7.706700   10.471600
H    21.500300    8.649800   10.564900
C    20.498400    6.987800    9.944400
H    19.706700    7.441900    9.679900
C    22.813200    5.681500   10.698900
H    23.612500    5.236000   10.954800
B    14.631200    2.310500    7.357300
H    15.197400    1.372500    7.205200
O     8.846500    1.671700    5.916700
C     9.716400    1.503800    4.803000
H     9.651900    0.577600    4.459800
H    10.653100    1.670100    5.077400
C     9.205200    0.816600    7.004800
H    10.136000    1.000100    7.285700
H     9.146300   -0.130900    6.721900
C     9.315300    2.475400    3.733700
H     9.901600    2.365000    2.955900
H     9.397000    3.390000    4.076400
H     8.387300    2.306500    3.470100
C     8.276700    1.065400    8.132600
H     7.371700    0.790500    7.878400
H     8.279400    2.019900    8.353200
H     8.567500    0.549100    8.914200

QM/MM links (counting starts at zero)
