80
Coordinates from ORCA-job DAQHEM-OH_1_4_tpss_d4_lanl2dz_631gpol_Fe2.opt
  Fe  22.24172299867688      0.46888089880741      9.54743376986936
  S   20.41109629619210     -0.87726912575691      7.14935729722542
  P   23.51182987724707      1.06253153286599      7.47588415378687
  O   21.31994479884915      0.03342450836255     11.00870477295381
  F   18.43558965795769     -2.59499159106367      7.50304532203679
  F   17.81156729839252     -0.49877927729646      7.29829730173294
  F   18.46314650767680     -1.63070787094851      5.53067506162955
  O   20.46092405815097     -0.68269916836071      8.63178452136958
  O   20.51796454192737      0.41495569015535      6.41945050099499
  O   21.29033439821529     -1.97006447410974      6.67689451216927
  N   20.34849003271220      2.42328469847254      8.41772808468378
  H   20.18255326009355      1.71307496911586      7.68422260634848
  N   21.37834870630195      2.20222286757187      9.27784610964346
  N   23.21621646180982     -2.20294855111524      8.81202678889347
  H   22.45240913270831     -2.22614214116657      8.11660181287926
  N   23.41456390807626     -1.07075415145032      9.53028530769811
  N   23.63697715230667      1.45661729009114     10.73186382017476
  N   22.46153299547906      3.49372109541309     10.99323752367229
  H   22.38731647826255      4.34553241957077     11.54161537005275
  N   25.06542056182750     -0.44290525411355     11.23276739109726
  C   19.82175005660099      3.66390047523899      8.55284287577706
  C   20.54684100769149      4.28907881983164      9.57722738286640
  H   20.39568473828066      5.28708393061025      9.96682117849555
  C   21.49914191964698      3.34164830013042      9.99127793555043
  C   23.42823269114499      2.61518307279547     11.36021238788308
  C   24.34796904056019      2.81462004028417     12.48258737547785
  C   24.53765482478144      3.84646277758918     13.40574122736682
  H   23.93763428106027      4.75590341645541     13.39888710936482
  C   25.54354323086857      3.67571013431489     14.36923893118663
  H   25.71989425566521      4.45915863914778     15.10281892191774
  C   26.32439655220699      2.50562352053922     14.40457462496038
  H   27.09386527011720      2.40462646293367     15.16703657220369
  C   26.12580298491521      1.46739876195399     13.47959197386736
  H   26.71944000995189      0.55706307156821     13.50828434906304
  C   25.13332816458111      1.64098062616162     12.51790470066293
  C   24.64536578960045      0.76799711197457     11.43785507927115
  C   24.52022795612243     -1.30042355926699     10.30648639767489
  C   25.00102927424154     -2.60329505206167     10.03868589665565
  H   25.85464336857915     -3.06695878474355     10.51235106794951
  C   24.15265572854527     -3.15647810044510      9.07958751053770
  C   18.65646823600334      4.15488143324637      7.72103647690354
  C   18.31820961622016      3.14911562622596      6.59860740847661
  H   17.47679882511600      3.53662490940957      6.01161371138155
  H   19.16430955198935      3.00231139685800      5.91369310425050
  H   18.01998569362273      2.17065084829855      6.99746324763430
  C   17.43071802878067      4.31829889597030      8.65778775890229
  H   16.57491378687115      4.68977305127853      8.07912802514966
  H   17.15238417388517      3.35823118726762      9.11113305226755
  H   17.63734083763343      5.03472401902367      9.46359440868218
  C   19.02775405949555      5.52399909290259      7.10085081497776
  H   18.17998461905821      5.90340735194134      6.51616420555209
  H   19.26332435916990      6.26637237457011      7.87506022651803
  H   19.89429463244294      5.43392975882857      6.43257511288704
  C   24.12997367846060     -4.49695448678575      8.37913854642298
  C   24.39468558232314     -4.28328015865347      6.86534363473723
  H   24.39558749418804     -5.25457324372030      6.35393204687529
  H   23.61592018184332     -3.66116372355886      6.40444193801948
  H   25.37109838822106     -3.80820700134211      6.69902785368353
  C   22.73830536407289     -5.15301886342916      8.57355696336686
  H   22.72999845576675     -6.13876860639325      8.09102786273709
  H   22.51176949693854     -5.28769719105053      9.63910814977814
  H   21.93956503900379     -4.55120077484481      8.11911776606208
  C   25.22511999783539     -5.40206668243262      8.97854137272129
  H   25.20835329210749     -6.37808232372901      8.47789863216682
  H   26.22430886038504     -4.96782717063146      8.83821415553927
  H   25.06240370329805     -5.56703637660842     10.05195369657176
  C   22.94756860254360      2.50718723753862      6.48411509226601
  H   22.04227932987872      2.23710385036412      5.93093714343117
  H   22.73410205050097      3.35905641788696      7.14136152267478
  H   23.73281581305655      2.79578118283283      5.77220588856091
  C   23.93031461050652     -0.20850192011127      6.21367120076053
  H   24.44826516701100     -1.04959030276782      6.68892964872816
  H   23.02558484295427     -0.58348441105546      5.72616040949684
  H   24.59599645047363      0.23676208521082      5.46127091859627
  C   25.18103507821010      1.59402591323258      8.05521791809288
  H   25.65155109302302      0.79324432665613      8.63749830621935
  H   25.81743503098011      1.82736635262005      7.19066806646616
  H   25.09809305386305      2.48236130769976      8.69064286432211
  C   18.66609285704560     -1.44635090078715      6.84430561148199
  H   20.57943979719177     -0.55661251201873     10.74115970899200
