78
Coordinates from ORCA-job DAQHEM_1_3_tpss_d4_lanl2dz_631gpol_Fe2.opt
  Fe  22.43086755433257      0.61270138084275      9.31720080353401
  S   20.47862207479309     -0.77885368178928      7.25304633728459
  P   23.69143346961882      1.10178876515456      7.27996203910569
  F   18.68139018545807     -2.47812056341677      8.17492653630862
  F   17.93780034236651     -0.43591801904256      7.84958683844834
  F   18.30458855340655     -1.76000918105479      6.13448123234636
  O   20.77201822225590     -0.46501436744279      8.70179890759808
  O   20.40680720378898      0.44106620924026      6.41406789555237
  O   21.29240277518517     -1.88875844988837      6.71455286831052
  N   20.40823204723384      2.46154149660110      8.33375023795288
  H   20.27015275719176      1.77828786081066      7.56945763096760
  N   21.38644117930027      2.20750023926810      9.25235290922905
  N   23.26274034506850     -2.11061218167606      8.70897164905490
  H   22.52321800394320     -2.10690476225712      7.98941379445909
  N   23.45212284102425     -1.00671283562853      9.47422989640832
  N   23.41003341102868      1.31076178875881     10.85371219701393
  N   22.26471361844182      3.38502318250274     11.12736808311968
  H   22.19688453720745      4.22626152545891     11.69251304575213
  N   25.00713742989526     -0.49330739484241     11.26475698042580
  C   19.78352186795505      3.64445989943334      8.55472965708620
  C   20.39072927975975      4.21234474900669      9.67882050832385
  H   20.14666906834518      5.15582004889391     10.14820410549974
  C   21.37453408171291      3.28800341834470     10.06875596481690
  C   23.21353748450368      2.48639638211752     11.48366485483102
  C   24.14919194642238      2.69551104419972     12.57881617226315
  C   24.33232708867699      3.72924668221083     13.50520181652566
  H   23.70780495491295      4.62199162738222     13.51889872331726
  C   25.36356749040513      3.58064925950720     14.44186220781365
  H   25.53362506407546      4.36328423721964     15.17777451378129
  C   26.18336690342570      2.43413022152821     14.44888993314042
  H   26.97362322576580      2.35248145009957     15.19202070947157
  C   25.99674331091973      1.40024960567832     13.52057526177705
  H   26.62185407120363      0.51089054140263     13.52164645827527
  C   24.97033131378061      1.54882278596751     12.58724078454025
  C   24.50023342075084      0.67264666241683     11.51537610190859
  C   24.49727076773146     -1.31841193513344     10.30165030627058
  C   24.94619216348143     -2.63201542123836     10.02871140682163
  H   25.74857334287038     -3.14281148434188     10.54146321823083
  C   24.13299778084482     -3.11864841741763      9.01109391980270
  C   18.65012817187612      4.14913684679893      7.68680954820622
  C   18.28949030493076      3.12112690970097      6.59272980813241
  H   17.45127267976430      3.50694539789199      5.99996980125928
  H   19.12715808528376      2.94288693391905      5.90501330554275
  H   17.98166291366825      2.15864112889767      7.02165269894683
  C   17.41651672092583      4.39697433932515      8.59127491628870
  H   16.58971487857180      4.78825935229693      7.98451010001773
  H   17.08524581517244      3.46586963305507      9.06882480713017
  H   17.63742703540230      5.13005170995173      9.37826527854823
  C   19.09178763466485      5.48090920537016      7.02822331815360
  H   18.27609360503501      5.87225663757761      6.40662203105731
  H   19.33798170672454      6.23759941167837      7.78486426521165
  H   19.97198727278657      5.33198927902917      6.38888711873113
  C   24.06169030875191     -4.45267360796875      8.30080779688533
  C   24.26401392614713     -4.24260838283265      6.77812767634221
  H   24.24099793953626     -5.21505746454645      6.26938843980696
  H   23.46893789475754     -3.62110314685312      6.34556571123901
  H   25.23371774113266     -3.77072728964057      6.56953118484928
  C   22.66844269191175     -5.08592544371869      8.55515457443925
  H   22.61562844939851     -6.06443526725394      8.06046717400132
  H   22.49313776833495     -5.23144065513075      9.62896386988333
  H   21.86145429040021     -4.45949237889955      8.15177592930644
  C   25.16558021629908     -5.37795982004821      8.85078474770344
  H   25.11903432193582     -6.34848681679845      8.34134512878935
  H   26.16417190931785     -4.95313302874118      8.68074852707337
  H   25.03892857501685     -5.55397677875745      9.92739459653196
  C   23.09683370039542      2.41082226848180      6.12459645911641
  H   22.21173598569723      2.04267260150575      5.59292861393941
  H   22.81827354539427      3.31025458159983      6.68872784654391
  H   23.87443093714134      2.67462108734337      5.39506736700440
  C   24.25378316090876     -0.24114820250981      6.15094824156706
  H   24.80761241462557     -0.99561420095216      6.72231898571512
  H   23.38867453512342     -0.72427957946099      5.68275768609714
  H   24.91028237570947      0.16546072970417      5.36958808368339
  C   25.28150559693194      1.78720762995318      7.92667302016356
  H   25.76252648112784      1.04040697851272      8.57139782733337
  H   25.96815334851044      2.05474069775936      7.11191671200556
  H   25.08273842692961      2.68125861927896      8.53177480363709
  C   18.73234545467093     -1.41339228439601      7.35755549174574
