80
Coordinates from ORCA-job DAQHEM-OH_1_6_tpss_d4_lanl2dz_631gpol_Fe2.opt
  Fe  21.93497258149965      0.27991295809784      9.82145294329485
  S   20.30386477987542     -0.92192768443803      7.31298911309570
  P   23.31837099735464      0.96828406115575      7.45824021993426
  O   21.04163998046928     -0.09469266499233     11.38748709126530
  F   18.45140577657945     -2.67668758935329      7.99147681973193
  F   17.71702620152962     -0.63023343929972      7.66953481451632
  F   18.26249779363896     -1.88684892023937      5.95119379986338
  O   20.43436460438712     -0.66942904335739      8.80814174351389
  O   20.28121647345346      0.34066462967993      6.54431513262136
  O   21.19508657759249     -2.00040791923152      6.84959261438347
  N   20.22667874719708      2.46666719843184      8.48544446303654
  H   20.01648966752049      1.74575325865404      7.77958465009866
  N   21.18733247685974      2.19034862997776      9.40171038982622
  N   23.22354079248930     -2.33932717654318      8.88038409228328
  H   22.45031709972278     -2.38373308162327      8.20088750345777
  N   23.32036611420201     -1.25178350799381      9.67671434605432
  N   23.40732268588277      1.31214825141984     10.86793271417325
  N   22.33378782605072      3.43199807512216     11.08405659948342
  H   22.33236486823691      4.30122790946570     11.60992295386530
  N   24.95210608932273     -0.53530215657901     11.33036271254596
  C   19.81583651209110      3.75860724542388      8.53499096432817
  C   20.55223600662658      4.36332752127243      9.56282484942239
  H   20.48629256828371      5.39083913801464      9.89528814662944
  C   21.38665742658723      3.34528243436489     10.05955698000836
  C   23.25753713354048      2.51214230308879     11.45055347222204
  C   24.22285734249472      2.73352783002177     12.52636502204215
  C   24.46646475020006      3.80181361395279     13.39533549006261
  H   23.87877235955918      4.71914009040992     13.37701902012017
  C   25.50944053323984      3.65550034435754     14.32102571440291
  H   25.72548187953494      4.46388782898704     15.01582255528685
  C   26.28008933254322      2.47782579410283     14.36730019982848
  H   27.08107337512642      2.39731989286403     15.09911526165243
  C   26.03274642808314      1.40878183383271     13.49217601574362
  H   26.62114354839330      0.49529752280994     13.52428729752248
  C   24.99460243382365      1.55541786029644     12.57420341722196
  C   24.47326498738875      0.64943596246689     11.54200831008757
  C   24.46631563452959     -1.41754337372653     10.39622038801915
  C   25.07637894278054     -2.64167145328626     10.03040534874848
  H   25.99247050722349     -3.04058267274404     10.44225065672146
  C   24.26302485523865     -3.20862737185947      9.05031973448112
  C   18.76289099661755      4.31766005382398      7.60258863745377
  C   18.21341647840693      3.21320298390830      6.67255524644360
  H   17.42766120800913      3.63690733518070      6.03570133420944
  H   18.99239059973416      2.80842711048795      6.01221995781946
  H   17.77134316801222      2.38273642018690      7.24037911555053
  C   17.61009022605502      4.90169862103993      8.45689099834167
  H   16.84608338585705      5.33347352086260      7.79743200132712
  H   17.13865175425799      4.12182378091463      9.06872483947219
  H   17.96967027310808      5.69505476319699      9.12549887172279
  C   19.40826154999498      5.44121903231923      6.75202352554497
  H   18.65734831294339      5.86839880329638      6.07483955383999
  H   19.79524622314024      6.24942203734903      7.38662115475504
  H   20.23681224863713      5.05007822824100      6.14681730202123
  C   24.35700906684224     -4.48869991630317      8.24881401898331
  C   24.54054935981391     -4.13716861101416      6.74907016579896
  H   24.63835340477289     -5.06077226847056      6.16379816549199
  H   23.67919952738818     -3.57995791654387      6.35655153347608
  H   25.44689979899518     -3.53634452594637      6.59468377690358
  C   23.05284442575198     -5.30657515102748      8.43334211217675
  H   23.12846704010779     -6.24822720626659      7.87445611741249
  H   22.88298307659892     -5.54462784365746      9.49127881510897
  H   22.17679099041927     -4.76278327972143      8.05369381434509
  C   25.56490417228902     -5.31035236425546      8.74278567191424
  H   25.63360668478494     -6.24234885123076      8.16822830493595
  H   26.50531662760632     -4.75919944325623      8.60692808653908
  H   25.46208994947823     -5.57132986298367      9.80449591208457
  C   22.81279722995491      2.47657564304674      6.50828292819308
  H   21.90773288843462      2.25694787024475      5.93020233709104
  H   22.60268478368211      3.30610639614360      7.19621843665318
  H   23.60952391940272      2.78602824372614      5.81778879065876
  C   23.81834726257440     -0.18202779034752      6.09656339164053
  H   24.32198064824809     -1.06001533638990      6.51884967893816
  H   22.93634553747929     -0.52562995324426      5.54572897021318
  H   24.50885968049658      0.31873595268088      5.40361564030577
  C   24.98217644837083      1.49303413066709      8.08910360405202
  H   25.45883463207290      0.66538386139997      8.62886211261677
  H   25.63670409977829      1.79835377621919      7.26097192150583
  H   24.87411749888052      2.33501483594708      8.78323876894304
  C   18.56461652682509     -1.58165254386326      7.22150687985683
  H   20.24415960302065     -0.66186466936520     11.33804394406063
