79
Coordinates from ORCA-job DAQHEM-oxo_1_3_tpss_d4_lanl2dz_631gpol_Fe2.opt
  Fe  22.18301122694901      0.43612961636796      9.61749521945348
  S   20.57206817310436     -0.78702602406661      7.06871139971488
  P   23.61243339416557      1.13539579181254      7.64693590597899
  O   21.30119590169540      0.01847754814749     10.94533720542899
  F   18.66820173206405     -2.47720823165490      7.77770802705995
  F   18.03896145538327     -0.37482543787790      7.66713184350764
  F   18.37217142549620     -1.52220053087864      5.82290895009470
  O   20.78787325218644     -0.56074428258853      8.54904895842414
  O   20.59186563215196      0.47898263874450      6.30110501759913
  O   21.35882443154967     -1.91838722735400      6.54561745859664
  N   20.26737539672133      2.34330890934166      8.42493935170810
  H   20.14772204772199      1.66399224054781      7.65999755432581
  N   21.25577318538453      2.12291478747734      9.33151693767558
  N   23.09074313936705     -2.23876787891929      8.85861068349238
  H   22.33214791596338     -2.24796423696942      8.16676670441015
  N   23.30731876196281     -1.12763842477179      9.59697486411330
  N   23.44873433919159      1.33377823433690     10.76344668900272
  N   22.28733432099390      3.39466429389569     11.05238058193964
  H   22.24619664176460      4.25059174231464     11.59733335450224
  N   24.99206913558260     -0.50819494557483     11.22305753038550
  C   19.73486818059947      3.58625633559689      8.53563880868735
  C   20.40534887148120      4.20985228183614      9.59469936262928
  H   20.23871428725965      5.20731774351012      9.97849227636503
  C   21.33749627515489      3.26006610938534     10.04254519843854
  C   23.27029481291670      2.52209700626363     11.36190620526361
  C   24.27111835680252      2.76870740692891     12.39406232780993
  C   24.51954206071320      3.84797624145744     13.24782502569441
  H   23.91029611870813      4.75119004988203     13.24525466843281
  C   25.59893102330481      3.73128858426712     14.13509144179848
  H   25.82057075255619      4.54870249555702     14.81737765552715
  C   26.39903259427778      2.57262522467744     14.15909134319723
  H   27.22703031486567      2.51517466717275     14.86231376440898
  C   26.14680941013307      1.49299986851410     13.29862178819212
  H   26.75694798336898      0.59355005225014     13.31532530530557
  C   25.07266529518940      1.61038928409469     12.41841942781799
  C   24.53286011195928      0.68578970550318     11.41844691013684
  C   24.43226084717936     -1.37761695949581     10.32398232934301
  C   24.91483371897225     -2.67015072799601     10.01463932251404
  H   25.78583273217798     -3.14007215281457     10.44836313658673
  C   24.04117734089918     -3.19628355672801      9.06668252358144
  C   18.61753324642189      4.08616862356011      7.64511831212714
  C   18.32085401902696      3.08151543693410      6.51070322657116
  H   17.51013173805679      3.47530800022046      5.88598454777549
  H   19.19478871036737      2.92485473426139      5.86425580366223
  H   17.99561447735994      2.10847378926600      6.90031224950587
  C   17.35017885608289      4.27043820259944      8.52043686961704
  H   16.52885402143712      4.65162861946711      7.89977533391297
  H   17.03674577579622      3.31650491001028      8.96348455871182
  H   17.52744873571744      4.98736574599262      9.33273445631732
  C   19.03833757617108      5.44725944114699      7.03805826817845
  H   18.22707691872259      5.83420703708649      6.40834986142278
  H   19.24380454620172      6.19089723426690      7.81958159303893
  H   19.93699430453093      5.34106791230217      6.41628089942461
  C   24.01024797756788     -4.50612900073607      8.31069050113031
  C   24.31529106336573     -4.23108947214952      6.81400586450813
  H   24.31487967630719     -5.17936615937769      6.26106977273722
  H   23.55797587972580     -3.57626402073363      6.36361519802044
  H   25.30255751388197     -3.76494444216414      6.69300132610594
  C   22.60576572304024     -5.14876706661315      8.44374075571846
  H   22.59692167358702     -6.11370112150799      7.92103028535227
  H   22.34873875772188     -5.32293673406981      9.49644776469261
  H   21.82595826431731     -4.51991641369958      7.99266055212942
  C   25.07800756579088     -5.45220650501157      8.89660743130260
  H   25.05658180782533     -6.40734325334078      8.35748180989321
  H   26.08679246901874     -5.02991231428371      8.79290755929429
  H   24.89053408249935     -5.65551230287570      9.95928124081896
  C   23.08372208394287      2.58683678143763      6.63695102370203
  H   22.20072605871162      2.31703612657389      6.04761068243373
  H   22.83379832672037      3.43245747543408      7.29074794236245
  H   23.89021802095792      2.89268931700908      5.95690700289592
  C   24.12044058716299     -0.10536290038594      6.38044805738960
  H   24.59750645662344     -0.96200054413378      6.87197504724344
  H   23.25272232052089     -0.46795174460382      5.82034458107349
  H   24.83842443507691      0.34549106213896      5.68182300562137
  C   25.25680645005510      1.69015524670305      8.28658634589505
  H   25.73599577989956      0.88251069377106      8.85279194526740
  H   25.91225732379722      1.97183332912473      7.45148442522853
  H   25.14017219243372      2.55565694409929      8.94952292310007
  C   18.79114198563364     -1.33619090991217      7.08368791667192
